b-DB01414.mol2-000.sdf
     RDKit          3D

  5  4  0  0  0  0  0  0  0  0999 V2000
    4.4851   -0.6286    0.7617 O   0  0  0  0  0  0  0  0  0  0  0  0
    7.2619    0.0151   -1.2624 N   0  0  0  0  0  0  0  0  0  0  0  0
    4.1009    0.3886    0.1899 C   0  0  0  0  0  3  0  0  0  0  0  0
    4.9340    1.1497   -0.8209 C   0  0  0  0  0  0  0  0  0  0  0  0
    6.2330    0.5145   -1.0661 C   0  0  0  0  0  0  0  0  0  0  0  0
  1  3  2  0
  2  5  3  0
  3  4  1  0
  4  5  1  0
M  RAD  1   3   2
M  END
>  <ATOMTYPES>  (1) 
O.2
N.1
C.2
C.3
C.1

>  <ATOM_NUMBER ELIGIBLE_ATOMTYPE_TO_CONNECT>  (1) 
3 N.am


>  <SIMILAR_FRAGMENTS>  (1) 


$$$$
