l-DB01414.mol2-000.sdf
     RDKit          3D

  3  2  0  0  0  0  0  0  0  0999 V2000
   -6.0402    0.0258   -1.3634 O   0  0  0  0  0  0  0  0  0  0  0  0
   -5.6476    0.5727   -0.3417 C   0  0  0  0  0  3  0  0  0  0  0  0
   -6.5523    1.1976    0.6767 C   0  0  0  0  0  0  0  0  0  0  0  0
  1  2  2  0
  2  3  1  0
M  RAD  1   2   2
M  END
>  <MAX-NUMBER-Of-CONTACTS ATOMTYPES>  (1) 
0 O.2
1 C.2
0 C.3

>  <SIMILAR_FRAGMENTS>  (1) 


$$$$
