#	Name: 23684363
#	Creating user name:	landrgr1
#	Creation time:	28. 01. 2015 13:52

#	Modifying user name:	landrgr1
#	Modification time:	28. 01. 2015 13:52

#	Program:	corina 3.48 0006  22.01.2010

@<TRIPOS>MOLECULE
23684363
  34   33    0    0    0
SMALL
NO_CHARGES


@<TRIPOS>ATOM
   1 Na1            0.0000     0.0000     0.0000 Du      
   2 O2            10.3561    12.5232     6.0526 O.3     
   3 O3            11.4358    10.5807     6.0319 O.2     
   4 O4             5.8972     5.0120     6.4393 O.co2   
   5 O5             5.9167     5.0000     8.5509 O.co2   
   6 N6             7.8480    10.9618     6.0677 N.pl3   
   7 C7             7.6140     8.7728     6.0581 C.2     
   8 C8             8.9839     9.0512     6.0471 C.2     
   9 C9             6.9868     7.4025     6.0562 C.3     
  10 C10            6.9505     9.9540     6.0705 C.2     
  11 C11            9.1159    10.4248     6.0532 C.2     
  12 C12            6.7879     6.9306     7.4979 C.3     
  13 C13           10.1038     8.0428     6.0314 C.3     
  14 C14            5.4523    10.1162     6.0852 C.3     
  15 C15           10.3744    11.1744     6.0452 C.2     
  16 C16            6.1607     5.5603     7.4959 C.2     
  17 C17           11.6407    13.1999     6.0440 C.3     
  18 C18           11.4197    14.7138     6.0542 C.3     
  19 H19            6.0216     7.4455     5.5515 H       
  20 H20            7.6400     6.7047     5.5323 H       
  21 H21            7.6352    11.9082     6.0711 H       
  22 H22            7.7531     6.8876     8.0026 H       
  23 H23            6.1347     7.6284     8.0218 H       
  24 H24           10.3643     7.8052     5.0000 H       
  25 H25           10.9740     8.4583     6.5395 H       
  26 H26            9.7830     7.1356     6.5433 H       
  27 H27            5.0816    10.1603     5.0611 H       
  28 H28            5.0000     9.2680     6.5990 H       
  29 H29            5.1917    11.0376     6.6060 H       
  30 H30           12.2101    12.9099     6.9270 H       
  31 H31           12.1932    12.9194     5.1471 H       
  32 H32           10.8503    15.0039     5.1712 H       
  33 H33           10.8673    14.9943     6.9510 H       
  34 H34           12.3841    15.2219     6.0477 H       
@<TRIPOS>BOND
   1    2   15 1
   2    2   17 1
   3    3   15 2
   4    4   16 ar
   5    5   16 ar
   6    6   10 1
   7    6   11 1
   8    6   21 1
   9    7    8 1
  10    7    9 1
  11    7   10 2
  12    8   11 2
  13    8   13 1
  14    9   12 1
  15    9   19 1
  16    9   20 1
  17   10   14 1
  18   11   15 1
  19   12   16 1
  20   12   22 1
  21   12   23 1
  22   13   24 1
  23   13   25 1
  24   13   26 1
  25   14   27 1
  26   14   28 1
  27   14   29 1
  28   17   18 1
  29   17   30 1
  30   17   31 1
  31   18   32 1
  32   18   33 1
  33   18   34 1

#	End of record

#	Name: 23675322
#	Creating user name:	landrgr1
#	Creation time:	28. 01. 2015 13:52

#	Modifying user name:	landrgr1
#	Modification time:	28. 01. 2015 13:52

#	Program:	corina 3.48 0006  22.01.2010

@<TRIPOS>MOLECULE
23675322
  43   45    0    0    0
SMALL
NO_CHARGES


@<TRIPOS>ATOM
   1 S1            -0.0364     1.8831     0.2062 S.3     
   2 S2             5.0134     1.4162    -0.3864 S.3     
   3 S3             8.0769     2.0585    -0.6909 S.3     
   4 O4             0.0893    -2.0844     2.5060 O.2     
   5 O5             3.2932    -0.6683     3.2426 O.co2   
   6 O6             3.9510    -1.5200     1.4171 O.co2   
   7 O7            -3.7019    -1.0408     1.8093 O.2     
   8 N8             0.9185    -0.4185     1.1174 N.am    
   9 N9            -1.9676     0.3423     1.7755 N.am    
  10 N10           -5.3527     0.4067     3.2440 N.pl3   
  11 N11           -6.1946    -0.0205     2.3647 N.2     
  12 N12            6.7954     2.4803     1.4039 N.2     
  13 N13           -7.0913    -0.3155     4.2430 N.2     
  14 N14           -7.2433    -0.4559     2.9713 N.2     
  15 N15            7.9702     2.8585     1.6622 N.2     
  16 C16           -0.0917     0.0609     0.1365 C.3     
  17 C17           -1.1808    -0.5926     0.9674 C.3     
  18 C18            0.0034    -1.1943     1.6865 C.2     
  19 C19            2.2275     0.0542     1.2916 C.2     
  20 C20            2.5765     1.2344     0.7945 C.2     
  21 C21            1.7451     2.1759    -0.0138 C.3     
  22 C22            3.9873     1.6800     1.0812 C.3     
  23 C23            3.2127    -0.7570     2.0250 C.2     
  24 C24           -3.2233     0.0217     2.1455 C.2     
  25 C25           -4.0327     0.9834     2.9768 C.3     
  26 C26            6.5620     2.0052     0.2132 C.2     
  27 C27           -5.9173     0.2284     4.4528 C.2     
  28 C28            8.8611     2.7497     0.7310 C.2     
  29 C29           10.3117     3.1428     0.8409 C.3     
  30 H30            0.0239    -0.3412    -0.8700 H       
  31 H31           -1.7907    -1.3133     0.4227 H       
  32 H32            1.9960     2.0539    -1.0674 H       
  33 H33            1.9752     3.1981     0.2867 H       
  34 H34           -1.5848     1.1921     2.0444 H       
  35 H35            4.3887     1.1022     1.9138 H       
  36 H36            3.9884     2.7389     1.3398 H       
  37 H37           -4.1493     1.9224     2.4357 H       
  38 H38           -3.5195     1.1690     3.9203 H       
  39 H39           -5.4843     0.4785     5.4100 H       
  40 H40           10.4306     4.1824     0.5355 H       
  41 H41           10.6423     3.0273     1.8731 H       
  42 H42           10.9116     2.5031     0.1935 H       
  43 Na43          15.9116     9.1824    10.4100 Du      
@<TRIPOS>BOND
   1    1   16 1
   2    1   21 1
   3    2   22 1
   4    2   26 1
   5    3   26 1
   6    3   28 1
   7    4   18 2
   8    5   23 ar
   9    6   23 ar
  10    7   24 2
  11    8   16 1
  12    8   18 am
  13    8   19 1
  14    9   17 1
  15    9   24 am
  16    9   34 1
  17   10   11 1
  18   10   25 1
  19   10   27 1
  20   11   14 2
  21   12   15 1
  22   12   26 2
  23   13   14 1
  24   13   27 2
  25   15   28 2
  26   16   17 1
  27   16   30 1
  28   17   18 1
  29   17   31 1
  30   19   20 2
  31   19   23 1
  32   20   21 1
  33   20   22 1
  34   21   32 1
  35   21   33 1
  36   22   35 1
  37   22   36 1
  38   24   25 1
  39   25   37 1
  40   25   38 1
  41   27   39 1
  42   28   29 1
  43   29   40 1
  44   29   41 1
  45   29   42 1

#	End of record

#	Name: 16196962
#	Creating user name:	landrgr1
#	Creation time:	28. 01. 2015 13:52

#	Modifying user name:	landrgr1
#	Modification time:	28. 01. 2015 13:52

#	Program:	corina 3.48 0006  22.01.2010

@<TRIPOS>MOLECULE
16196962
  57   60    0    0    0
SMALL
NO_CHARGES


@<TRIPOS>ATOM
   1 Cl1            0.0000     0.0000     0.0000 Cl      
   2 H2             0.0000     1.3700     0.0000 H       
   3 N3             7.0554    12.3000     9.3344 N.pl3   
   4 N4             8.4040     8.4533     9.6458 N.3     
   5 N5            10.7647    13.9107     8.7342 N.3     
   6 N6            12.8323     9.0286    10.4874 N.ar    
   7 N7            13.2704    10.3846     7.4545 N.ar    
   8 C8             8.6830    10.8187     9.2388 C.2     
   9 C9             9.2450    12.0935     9.2112 C.2     
  10 C10            7.3363    10.9713     9.3126 C.2     
  11 C11            8.2254    12.9873     9.2732 C.2     
  12 C12            9.3664     9.4757     9.2009 C.3     
  13 C13           10.6961    12.4928     9.1268 C.3     
  14 C14            6.3764     9.8078     9.3562 C.3     
  15 C15            8.4380    14.4812     9.2732 C.3     
  16 C16            7.1368     8.5519     8.9082 C.3     
  17 C17            9.9154    14.7473     9.5934 C.3     
  18 C18           10.5584     9.4863    10.1228 C.ar    
  19 C19           11.3966    11.6460     8.0956 C.ar    
  20 C20            5.7171    12.8916     9.4054 C.3     
  21 C21            8.9768     7.1055     9.5304 C.3     
  22 C22           12.1528    14.3914     8.7378 C.3     
  23 C23           10.4383     9.9609    11.4203 C.ar    
  24 C24           10.7908    11.3791     6.8772 C.ar    
  25 C25           11.7847     9.0228     9.6862 C.ar    
  26 C26           12.6510    11.1262     8.3522 C.ar    
  27 C27           11.5614     9.9513    12.2329 C.ar    
  28 C28           11.4726    10.5958     5.9588 C.ar    
  29 C29           12.7551     9.4723    11.7266 C.ar    
  30 C30           12.7249    10.1104     6.2859 C.ar    
  31 H31            9.6903     9.2570     8.1834 H       
  32 H32           11.1714    12.3574    10.0984 H       
  33 H33            6.0070     9.6723    10.3727 H       
  34 H34            5.5410     9.9934     8.6811 H       
  35 H35            8.1941    14.8883     8.2919 H       
  36 H36            7.8070    14.9435    10.0322 H       
  37 H37            7.3427     8.6141     7.8397 H       
  38 H38            6.5301     7.6691     9.1097 H       
  39 H39           10.1090    14.5076    10.6389 H       
  40 H40           10.1419    15.7984     9.4145 H       
  41 H41            5.4370    13.0325    10.4494 H       
  42 H42            5.7184    13.8554     8.8963 H       
  43 H43            5.0000    12.2271     8.9234 H       
  44 H44            9.8712     7.0366    10.1496 H       
  45 H45            8.2454     6.3700     9.8653 H       
  46 H46            9.2388     6.9099     8.4906 H       
  47 H47           12.7423    13.8048     8.0332 H       
  48 H48           12.1745    15.4409     8.4443 H       
  49 H49           12.5715    14.2853     9.7386 H       
  50 H50            9.4925    10.3296    11.7887 H       
  51 H51            9.8108    11.7717     6.6492 H       
  52 H52           11.8866     8.6518     8.6770 H       
  53 H53           13.1295    11.3292     9.2989 H       
  54 H54           11.5044    10.3134    13.2488 H       
  55 H55           11.0310    10.3677     5.0000 H       
  56 H56           13.6346     9.4614    12.3532 H       
  57 H57           13.2626     9.4995     5.5760 H       
@<TRIPOS>BOND
   1    1    2 1
   2    3   10 1
   3    3   11 1
   4    3   20 1
   5    4   12 1
   6    4   16 1
   7    4   21 1
   8    5   13 1
   9    5   17 1
  10    5   22 1
  11    6   25 ar
  12    6   29 ar
  13    7   26 ar
  14    7   30 ar
  15    8    9 1
  16    8   10 2
  17    8   12 1
  18    9   11 2
  19    9   13 1
  20   10   14 1
  21   11   15 1
  22   12   18 1
  23   12   31 1
  24   13   19 1
  25   13   32 1
  26   14   16 1
  27   14   33 1
  28   14   34 1
  29   15   17 1
  30   15   35 1
  31   15   36 1
  32   16   37 1
  33   16   38 1
  34   17   39 1
  35   17   40 1
  36   18   23 ar
  37   18   25 ar
  38   19   24 ar
  39   19   26 ar
  40   20   41 1
  41   20   42 1
  42   20   43 1
  43   21   44 1
  44   21   45 1
  45   21   46 1
  46   22   47 1
  47   22   48 1
  48   22   49 1
  49   23   27 ar
  50   23   50 1
  51   24   28 ar
  52   24   51 1
  53   25   52 1
  54   26   53 1
  55   27   29 ar
  56   27   54 1
  57   28   30 ar
  58   28   55 1
  59   29   56 1
  60   30   57 1

#	End of record

#	Name: 16196945
#	Creating user name:	landrgr1
#	Creation time:	28. 01. 2015 13:52

#	Modifying user name:	landrgr1
#	Modification time:	28. 01. 2015 13:52

#	Program:	corina 3.48 0006  22.01.2010

@<TRIPOS>MOLECULE
16196945
  49   50    0    0    0
SMALL
NO_CHARGES


@<TRIPOS>ATOM
   1 Cl1            0.0000     0.0000     0.0000 Cl      
   2 H2             0.0000     1.3700     0.0000 H       
   3 O3            12.6575    13.1373    10.1243 O.2     
   4 N4             9.0920    12.9053    10.8914 N.pl3   
   5 N5            11.3733    11.3287    10.1167 N.am    
   6 N6            13.7153     9.5696     7.8009 N.3     
   7 C7             9.0502    11.5559    10.6792 C.ar    
   8 C8            10.1120    10.7575    10.3079 C.ar    
   9 C9             7.7596    11.0824    10.8930 C.ar    
  10 C10           10.4023    13.5479    10.7008 C.3     
  11 C11            7.8419    13.3202    11.2476 C.2     
  12 C12            6.9902    12.2697    11.2620 C.2     
  13 C13           12.5031    10.4833     9.7226 C.3     
  14 C14           11.5572    12.6557    10.2935 C.2     
  15 C15           12.5825    10.4172     8.1960 C.3     
  16 C16            9.8656     9.4037    10.1404 C.ar    
  17 C17            7.5367     9.7135    10.7179 C.ar    
  18 C18            7.4635    14.7430    11.5695 C.3     
  19 C19            8.5820     8.9088    10.3489 C.ar    
  20 C20            5.5224    12.3137    11.6010 C.3     
  21 C21           13.4926     8.1735     8.2000 C.3     
  22 C22           13.9698     9.6703     6.3576 C.3     
  23 C23           14.8169     7.4094     8.1432 C.3     
  24 C24           14.6653    10.9988     6.0538 C.3     
  25 H25           10.2896    14.3193     9.9390 H       
  26 H26           10.6727    14.0412    11.6344 H       
  27 H27           13.4276    10.9055    10.1165 H       
  28 H28           12.3626     9.4793    10.1229 H       
  29 H29           12.7229    11.4213     7.7957 H       
  30 H30           11.6580     9.9950     7.8021 H       
  31 H31           10.6645     8.7376     9.8497 H       
  32 H32            6.5528     9.2956    10.8719 H       
  33 H33            7.1447    15.2492    10.6584 H       
  34 H34            6.6474    14.7473    12.2921 H       
  35 H35            8.3246    15.2615    11.9910 H       
  36 H36            8.4033     7.8521    10.2147 H       
  37 H37            5.3923    12.1617    12.6725 H       
  38 H38            5.1134    13.2840    11.3194 H       
  39 H39            5.0000    11.5272    11.0563 H       
  40 H40           13.0997     8.1445     9.2163 H       
  41 H41           12.7769     7.7111     7.5204 H       
  42 H42           14.6090     8.8453     6.0429 H       
  43 H43           13.0241     9.6235     5.8177 H       
  44 H44           14.6491     6.3700     8.4252 H       
  45 H45           15.2172     7.4509     7.1302 H       
  46 H46           15.5280     7.8629     8.8337 H       
  47 H47           14.9418    11.0316     5.0000 H       
  48 H48           13.9879    11.8230     6.2775 H       
  49 H49           15.5616    11.0884     6.6676 H       
@<TRIPOS>BOND
   1    1    2 1
   2    3   14 2
   3    4    7 1
   4    4   10 1
   5    4   11 1
   6    5    8 1
   7    5   13 1
   8    5   14 am
   9    6   15 1
  10    6   21 1
  11    6   22 1
  12    7    8 ar
  13    7    9 ar
  14    8   16 ar
  15    9   12 1
  16    9   17 ar
  17   10   14 1
  18   10   25 1
  19   10   26 1
  20   11   12 2
  21   11   18 1
  22   12   20 1
  23   13   15 1
  24   13   27 1
  25   13   28 1
  26   15   29 1
  27   15   30 1
  28   16   19 ar
  29   16   31 1
  30   17   19 ar
  31   17   32 1
  32   18   33 1
  33   18   34 1
  34   18   35 1
  35   19   36 1
  36   20   37 1
  37   20   38 1
  38   20   39 1
  39   21   23 1
  40   21   40 1
  41   21   41 1
  42   22   24 1
  43   22   42 1
  44   22   43 1
  45   23   44 1
  46   23   45 1
  47   23   46 1
  48   24   47 1
  49   24   48 1
  50   24   49 1

#	End of record

#	Name: 16196940
#	Creating user name:	landrgr1
#	Creation time:	28. 01. 2015 13:52

#	Modifying user name:	landrgr1
#	Modification time:	28. 01. 2015 13:52

#	Program:	corina 3.48 0006  22.01.2010

@<TRIPOS>MOLECULE
16196940
  53   55    0    0    0
SMALL
NO_CHARGES


@<TRIPOS>ATOM
   1 O1            -0.0176     1.4478     0.0100 O.3     
   2 O2            -2.3451     0.2506     0.0258 O.2     
   3 O3             2.2013     1.4280    -0.0113 O.2     
   4 N4            -1.3178    -4.1247    -0.0083 N.pl3   
   5 N5             1.9467     5.6212     0.0132 N.pl3   
   6 N6             2.3372     4.2757     0.0027 N.2     
   7 N7            -0.0892     6.7916     0.0459 N.2     
   8 N8             0.1732     4.3681     0.0328 N.2     
   9 C9            -2.9651    -2.5963     0.0164 C.ar    
  10 C10           -1.6518    -1.9225     0.0075 C.2     
  11 C11           -2.6896    -3.9727     0.0059 C.ar    
  12 C12           -0.7057    -2.9251    -0.0074 C.2     
  13 C13           -4.2820    -2.1470     0.0318 C.ar    
  14 C14           -1.4117    -0.5257     0.0127 C.2     
  15 C15           -3.7451    -4.8786     0.0103 C.ar    
  16 C16            2.6397     6.7934     0.0130 C.2     
  17 C17            0.0021    -0.0041     0.0020 C.3     
  18 C18            0.5780     5.6296     0.0320 C.2     
  19 C19           -5.3146    -3.0602     0.0353 C.ar    
  20 C20           -5.0448    -4.4204     0.0249 C.ar    
  21 C21            1.9536     7.9639     0.0258 C.2     
  22 C22            0.5522     7.9367     0.0394 C.2     
  23 C23            1.2314     3.5546     0.0094 C.2     
  24 C24            4.1467     6.7907    -0.0006 C.3     
  25 C25            1.1740     2.0755     0.0020 C.2     
  26 C26           -0.2223     9.2294     0.0555 C.3     
  27 H27            0.3634    -2.7719    -0.0169 H       
  28 H28           -0.8576    -4.9785    -0.0139 H       
  29 H29           -4.4940    -1.0881     0.0399 H       
  30 H30           -3.5464    -5.9401     0.0020 H       
  31 H31            0.5123    -0.3556    -0.8948 H       
  32 H32            0.5293    -0.3651     0.8851 H       
  33 H33           -6.3378    -2.7149     0.0475 H       
  34 H34           -5.8612    -5.1276     0.0283 H       
  35 H35            2.4815     8.9061     0.0263 H       
  36 H36            4.5007     6.7954    -1.0315 H       
  37 H37            4.5163     7.6773     0.5146 H       
  38 H38            4.5129     5.8974     0.5053 H       
  39 H39           -1.2904     9.0129     0.0715 H       
  40 H40            0.0456     9.8025     0.9431 H       
  41 H41            0.0179     9.8079    -0.8366 H       
  42 O42            9.5163    16.6827     6.9914 O.2     
  43 N43           11.7345    16.6454     6.9807 N.am    
  44 C44           11.7543    15.1806     6.9727 C.3     
  45 C45           12.9931    17.3951     6.9727 C.3     
  46 C46           10.5583    17.3034     6.9899 C.2     
  47 H47           11.7691    14.8118     7.9983 H       
  48 H48           10.8645    14.8079     6.4653 H       
  49 H49           12.6442    14.8322     6.4484 H       
  50 H50           13.2954    17.5866     5.9431 H       
  51 H51           12.8548    18.3429     7.4930 H       
  52 H52           13.7655    16.8137     7.4761 H       
  53 H53           10.5436    18.3832     6.9958 H       
@<TRIPOS>BOND
   1    1   17 1
   2    1   25 1
   3    2   14 2
   4    3   25 2
   5    4   11 1
   6    4   12 1
   7    4   28 1
   8    5    6 1
   9    5   16 1
  10    5   18 1
  11    6   23 2
  12    7   18 1
  13    7   22 2
  14    8   18 2
  15    8   23 1
  16    9   10 1
  17    9   11 ar
  18    9   13 ar
  19   10   12 2
  20   10   14 1
  21   11   15 ar
  22   12   27 1
  23   13   19 ar
  24   13   29 1
  25   14   17 1
  26   15   20 ar
  27   15   30 1
  28   16   21 2
  29   16   24 1
  30   17   31 1
  31   17   32 1
  32   19   20 ar
  33   19   33 1
  34   20   34 1
  35   21   22 1
  36   21   35 1
  37   22   26 1
  38   23   25 1
  39   24   36 1
  40   24   37 1
  41   24   38 1
  42   26   39 1
  43   26   40 1
  44   26   41 1
  45   42   46 2
  46   43   44 1
  47   43   45 1
  48   43   46 am
  49   44   47 1
  50   44   48 1
  51   44   49 1
  52   45   50 1
  53   45   51 1
  54   45   52 1
  55   46   53 1

#	End of record

#	Name: 16196930
#	Creating user name:	landrgr1
#	Creation time:	28. 01. 2015 13:52

#	Modifying user name:	landrgr1
#	Modification time:	28. 01. 2015 13:52

#	Program:	corina 3.48 0006  22.01.2010

@<TRIPOS>MOLECULE
16196930
  70   71    0    0    0
SMALL
NO_CHARGES


@<TRIPOS>ATOM
   1 S1            -0.0210     1.6995     0.0114 S.3     
   2 O2           -12.0477     0.9385     0.3855 O.3     
   3 O3            -2.4649     0.9667     0.0317 O.2     
   4 O4             1.7929    -2.5625     1.1402 O.3     
   5 O5             1.7570    -2.4867    -1.0810 O.2     
   6 N6            -9.5201     0.0668     1.2452 N.3     
   7 N7            -4.7830    -0.2637     0.0474 N.3     
   8 N8            -1.1291    -0.8045     0.0085 N.am    
   9 C9            -8.3413    -0.8097     1.2452 C.3     
  10 C10          -10.7337    -0.6824     1.6019 C.3     
  11 C11           -9.6821     0.7319    -0.0558 C.3     
  12 C12           -7.1524    -0.0654     0.6341 C.3     
  13 C13          -11.9249     0.2783     1.6482 C.3     
  14 C14          -10.8838     1.6784     0.0071 C.3     
  15 C15           -5.9246    -0.9783     0.6341 C.3     
  16 C16           -3.5834    -1.1114     0.0308 C.3     
  17 C17           -3.5954    -1.9876    -1.2234 C.3     
  18 C18           -2.3533    -0.2410     0.0237 C.2     
  19 C19            0.0021    -0.0041     0.0020 C.2     
  20 C20            1.2872    -0.4772    -0.0128 C.2     
  21 C21            2.2788     0.5858    -0.0166 C.2     
  22 C22            1.7300     1.8061    -0.0048 C.2     
  23 C23            3.7411     0.3439    -0.0314 C.ar    
  24 C24            1.6259    -1.9003    -0.0232 C.2     
  25 C25            4.5495     0.9991    -0.9593 C.ar    
  26 C26            4.3142    -0.5355     0.8863 C.ar    
  27 C27            5.9102     0.7698    -0.9683 C.ar    
  28 C28            5.6762    -0.7568     0.8677 C.ar    
  29 C29            6.4725    -0.1082    -0.0591 C.ar    
  30 C30            2.1279    -3.9726     1.0538 C.3     
  31 C31            2.2764    -4.5488     2.4634 C.3     
  32 H32           -8.1025    -1.0974     2.2691 H       
  33 H33           -8.5524    -1.7026     0.6567 H       
  34 H34          -10.9176    -1.4545     0.8548 H       
  35 H35          -10.6013    -1.1454     2.5798 H       
  36 H36           -8.7821     1.3013    -0.2881 H       
  37 H37           -9.8492    -0.0175    -0.8294 H       
  38 H38           -7.3912     0.2223    -0.3897 H       
  39 H39           -6.9413     0.8274     1.2226 H       
  40 H40          -11.7651     1.0186     2.4321 H       
  41 H41          -12.8364    -0.2820     1.8562 H       
  42 H42          -11.0425     2.1308    -0.9718 H       
  43 H43          -10.6938     2.4595     0.7432 H       
  44 H44           -6.1357    -1.8712     0.0456 H       
  45 H45           -5.6857    -1.2661     1.6580 H       
  46 H46           -5.0028     0.0700    -0.8791 H       
  47 H47           -3.5745    -1.7458     0.9171 H       
  48 H48           -4.4852    -2.6172    -1.2183 H       
  49 H49           -3.6043    -1.3532    -2.1097 H       
  50 H50           -2.7053    -2.6166    -1.2357 H       
  51 H51           -1.0398    -1.7703     0.0021 H       
  52 H52            2.2887     2.7304    -0.0051 H       
  53 H53            4.1115     1.6844    -1.6699 H       
  54 H54            3.6936    -1.0421     1.6105 H       
  55 H55            6.5374     1.2764    -1.6869 H       
  56 H56            6.1213    -1.4377     1.5781 H       
  57 H57            7.5379    -0.2848    -0.0701 H       
  58 H58            1.3350    -4.5028     0.5263 H       
  59 H59            3.0665    -4.0906     0.5124 H       
  60 H60            2.5279    -5.6074     2.3986 H       
  61 H61            3.0693    -4.0186     2.9910 H       
  62 H62            1.3378    -4.4308     3.0049 H       
  63 O63           14.8615    11.6363     8.0256 O.3     
  64 O64           13.6143     8.1811     8.0189 O.3     
  65 O65           15.9379     9.6991     8.0049 O.2     
  66 O66           12.5379    10.1183     8.0396 O.2     
  67 C67           14.8798    10.2910     8.0182 C.2     
  68 C68           13.5961     9.5264     8.0263 C.2     
  69 H69           15.7171    12.0870     8.0198 H       
  70 H70           12.7588     7.7304     8.0247 H       
@<TRIPOS>BOND
   1    1   19 1
   2    1   22 1
   3    2   13 1
   4    2   14 1
   5    3   18 2
   6    4   24 1
   7    4   30 1
   8    5   24 2
   9    6    9 1
  10    6   10 1
  11    6   11 1
  12    7   15 1
  13    7   16 1
  14    7   46 1
  15    8   18 am
  16    8   19 1
  17    8   51 1
  18    9   12 1
  19    9   32 1
  20    9   33 1
  21   10   13 1
  22   10   34 1
  23   10   35 1
  24   11   14 1
  25   11   36 1
  26   11   37 1
  27   12   15 1
  28   12   38 1
  29   12   39 1
  30   13   40 1
  31   13   41 1
  32   14   42 1
  33   14   43 1
  34   15   44 1
  35   15   45 1
  36   16   17 1
  37   16   18 1
  38   16   47 1
  39   17   48 1
  40   17   49 1
  41   17   50 1
  42   19   20 2
  43   20   21 1
  44   20   24 1
  45   21   22 2
  46   21   23 1
  47   22   52 1
  48   23   25 ar
  49   23   26 ar
  50   25   27 ar
  51   25   53 1
  52   26   28 ar
  53   26   54 1
  54   27   29 ar
  55   27   55 1
  56   28   29 ar
  57   28   56 1
  58   29   57 1
  59   30   31 1
  60   30   58 1
  61   30   59 1
  62   31   60 1
  63   31   61 1
  64   31   62 1
  65   63   67 1
  66   63   69 1
  67   64   68 1
  68   64   70 1
  69   65   67 2
  70   66   68 2
  71   67   68 1

#	End of record

#	Name: 16196908
#	Creating user name:	landrgr1
#	Creation time:	28. 01. 2015 13:52

#	Modifying user name:	landrgr1
#	Modification time:	28. 01. 2015 13:52

#	Program:	corina 3.48 0006  22.01.2010

@<TRIPOS>MOLECULE
16196908
  51   53    0    0    0
SMALL
NO_CHARGES


@<TRIPOS>ATOM
   1 S1             1.0975     1.9565     1.3724 S.o2    
   2 F2             2.4371    -0.4130     0.2002 F       
   3 F3            -3.2720    14.6281    -1.0921 F       
   4 F4            -0.9901    14.5917    -0.9868 F       
   5 O5            -0.9804     5.1649    -0.6617 O.3     
   6 O6             0.9060     3.2941     1.8123 O.2     
   7 O7             0.8487     0.8247     2.1947 O.2     
   8 O8            -1.6597     3.6153     0.7599 O.2     
   9 O9            -0.9225     7.6242    -1.5543 O.2     
  10 O10           -2.0749    13.4315    -2.6628 O.3     
  11 N11            0.1571     1.7692     0.0222 N.am    
  12 N12           -2.2717     8.5567    -0.0602 N.am    
  13 C13           -0.2069     2.8349    -0.9230 C.3     
  14 C14           -1.0653     2.1903    -2.0318 C.3     
  15 C15           -0.6656     0.6931    -1.9546 C.3     
  16 C16           -0.4484     0.5051    -0.4346 C.3     
  17 C17           -1.0023     3.9000    -0.2131 C.2     
  18 C18            2.7785     1.8379     0.8578 C.ar    
  19 C19            3.2578     0.6529     0.3250 C.ar    
  20 C20            3.6175     2.9289     0.9804 C.ar    
  21 C21           -1.7703     6.1381     0.0714 C.3     
  22 C22            4.5786     0.5613    -0.0794 C.ar    
  23 C23            4.9365     2.8362     0.5763 C.ar    
  24 C24            5.4174     1.6524     0.0492 C.ar    
  25 C25           -1.6237     7.4922    -0.5734 C.2     
  26 C26           -2.2221     9.7919    -0.7196 C.ar    
  27 C27           -2.1575     9.8370    -2.1059 C.ar    
  28 C28           -2.2434    10.9715     0.0125 C.ar    
  29 C29           -2.1086    11.0547    -2.7552 C.ar    
  30 C30           -2.1944    12.1885    -0.6381 C.ar    
  31 C31           -2.1236    12.2328    -2.0228 C.ar    
  32 C32           -2.0939    14.6041    -1.8463 C.3     
  33 H33            0.6938     3.2692    -1.3569 H       
  34 H34           -2.1270     2.3174    -1.8205 H       
  35 H35           -0.8124     2.6072    -3.0067 H       
  36 H36           -1.4707     0.0545    -2.3179 H       
  37 H37            0.2573     0.5063    -2.5037 H       
  38 H38            0.2282    -0.3289    -0.2479 H       
  39 H39           -1.4029     0.3393     0.0650 H       
  40 H40            3.2427     3.8545     1.3918 H       
  41 H41           -2.8187     5.8402     0.0567 H       
  42 H42           -1.4208     6.1869     1.1027 H       
  43 H43            4.9536    -0.3624    -0.4947 H       
  44 H44            5.5915     3.6896     0.6722 H       
  45 H45            6.4480     1.5810    -0.2659 H       
  46 H46           -2.7725     8.4676     0.7658 H       
  47 H47           -2.1450     8.9199    -2.6761 H       
  48 H48           -2.2985    10.9371     1.0905 H       
  49 H49           -2.0582    11.0900    -3.8334 H       
  50 H50           -2.2109    13.1061    -0.0687 H       
  51 H51           -2.0505    15.4893    -2.4807 H       
@<TRIPOS>BOND
   1    1    6 2
   2    1    7 2
   3    1   11 am
   4    1   18 1
   5    2   19 1
   6    3   32 1
   7    4   32 1
   8    5   17 1
   9    5   21 1
  10    8   17 2
  11    9   25 2
  12   10   31 1
  13   10   32 1
  14   11   13 1
  15   11   16 1
  16   12   25 am
  17   12   26 1
  18   12   46 1
  19   13   14 1
  20   13   17 1
  21   13   33 1
  22   14   15 1
  23   14   34 1
  24   14   35 1
  25   15   16 1
  26   15   36 1
  27   15   37 1
  28   16   38 1
  29   16   39 1
  30   18   19 ar
  31   18   20 ar
  32   19   22 ar
  33   20   23 ar
  34   20   40 1
  35   21   25 1
  36   21   41 1
  37   21   42 1
  38   22   24 ar
  39   22   43 1
  40   23   24 ar
  41   23   44 1
  42   24   45 1
  43   26   27 ar
  44   26   28 ar
  45   27   29 ar
  46   27   47 1
  47   28   30 ar
  48   28   48 1
  49   29   31 ar
  50   29   49 1
  51   30   31 ar
  52   30   50 1
  53   32   51 1

#	End of record

#	Name: 16196907
#	Creating user name:	landrgr1
#	Creation time:	28. 01. 2015 13:52

#	Modifying user name:	landrgr1
#	Modification time:	28. 01. 2015 13:52

#	Program:	corina 3.48 0006  22.01.2010

@<TRIPOS>MOLECULE
16196907
  48   48    0    0    0
SMALL
NO_CHARGES


@<TRIPOS>ATOM
   1 Cl1            0.0000     0.0000     0.0000 Cl      
   2 H2             0.0000     1.3700     0.0000 H       
   3 O3            10.1380    10.4803    11.5012 O.2     
   4 O4             5.6370    11.7494    10.5537 O.3     
   5 O5             6.1546     9.6815     9.9715 O.2     
   6 N6            10.7508     9.7234     9.5078 N.am    
   7 N7            10.1829    10.8275     7.0697 N.3     
   8 C8             7.9109     9.0845    11.8681 C.3     
   9 C9             6.7637     8.0654    11.9829 C.3     
  10 C10            8.7916     8.8997    13.1210 C.3     
  11 C11            6.9874     7.2968    13.3017 C.3     
  12 C12            7.8403     8.2609    14.1632 C.3     
  13 C13            8.7310     8.8104    10.6059 C.3     
  14 C14            7.3469    10.5062    11.8289 C.3     
  15 C15            9.9232     9.7316    10.5716 C.2     
  16 C16            6.3360    10.6152    10.7166 C.2     
  17 C17           11.8857    10.6206     9.5078 C.3     
  18 C18           10.4621     8.7941     8.3956 C.3     
  19 C19           11.4849    11.9630     8.8458 C.3     
  20 C20           10.6752     9.4668     7.0264 C.3     
  21 C21           11.2720    11.7613     7.3998 C.3     
  22 C22            9.5360    11.1938     5.8027 C.3     
  23 H23            5.8052     8.5837    12.0107 H       
  24 H24            6.7913     7.3755    11.1394 H       
  25 H25            9.6256     8.2317    12.9059 H       
  26 H26            9.1556     9.8635    13.4770 H       
  27 H27            6.0347     7.0909    13.7895 H       
  28 H28            7.5301     6.3700    13.1157 H       
  29 H29            8.4051     7.7099    14.9151 H       
  30 H30            7.2125     9.0201    14.6296 H       
  31 H31            9.0718     7.7751    10.6117 H       
  32 H32            8.1121     8.9842     9.7256 H       
  33 H33            6.8659    10.7327    12.7805 H       
  34 H34            8.1573    11.2139    11.6539 H       
  35 H35           12.2046    10.8028    10.5341 H       
  36 H36           12.7050    10.1698     8.9478 H       
  37 H37           11.1213     7.9295     8.4739 H       
  38 H38            9.4275     8.4594     8.4707 H       
  39 H39           10.5648    12.3307     9.2999 H       
  40 H40           12.2798    12.6933     8.9968 H       
  41 H41           10.1370     8.9106     6.2589 H       
  42 H42           11.7392     9.4734     6.7897 H       
  43 H43           12.1971    11.3807     6.9670 H       
  44 H44           11.0513    12.7257     6.9424 H       
  45 H45            8.7411    10.4816     5.5814 H       
  46 H46            9.1138    12.1952     5.8865 H       
  47 H47           10.2732    11.1764     5.0000 H       
  48 H48            5.0000    11.7720     9.8265 H       
@<TRIPOS>BOND
   1    1    2 1
   2    3   15 2
   3    4   16 1
   4    4   48 1
   5    5   16 2
   6    6   15 am
   7    6   17 1
   8    6   18 1
   9    7   20 1
  10    7   21 1
  11    7   22 1
  12    8    9 1
  13    8   10 1
  14    8   13 1
  15    8   14 1
  16    9   11 1
  17    9   23 1
  18    9   24 1
  19   10   12 1
  20   10   25 1
  21   10   26 1
  22   11   12 1
  23   11   27 1
  24   11   28 1
  25   12   29 1
  26   12   30 1
  27   13   15 1
  28   13   31 1
  29   13   32 1
  30   14   16 1
  31   14   33 1
  32   14   34 1
  33   17   19 1
  34   17   35 1
  35   17   36 1
  36   18   20 1
  37   18   37 1
  38   18   38 1
  39   19   21 1
  40   19   39 1
  41   19   40 1
  42   20   41 1
  43   20   42 1
  44   21   43 1
  45   21   44 1
  46   22   45 1
  47   22   46 1
  48   22   47 1

#	End of record

#	Name: 16196905
#	Creating user name:	landrgr1
#	Creation time:	28. 01. 2015 13:52

#	Modifying user name:	landrgr1
#	Modification time:	28. 01. 2015 13:52

#	Program:	corina 3.48 0006  22.01.2010

@<TRIPOS>MOLECULE
16196905
  31   33    0    0    0
SMALL
NO_CHARGES


@<TRIPOS>ATOM
   1 S1             0.1626     1.7068    -0.0394 S.3     
   2 S2             2.7649     3.4666    -0.1885 S.3     
   3 O3            -5.1202    -5.2067     0.5335 O.3     
   4 O4            -6.7613    -3.7295     1.0392 O.3     
   5 O5            -2.2701     0.2169    -0.1379 O.2     
   6 N6            -1.6223    -1.7541     0.6480 N.am    
   7 N7             2.7957     0.9759    -0.2528 N.2     
   8 N8             4.0072     1.3163    -0.3339 N.2     
   9 C9            -2.9474    -2.1944     0.7615 C.ar    
  10 C10            0.0679    -0.1003    -0.0778 C.3     
  11 C11           -4.5632    -3.9686     0.6767 C.ar    
  12 C12           -5.5718    -3.0599     0.9877 C.ar    
  13 C13           -3.2531    -3.5339     0.5641 C.ar    
  14 C14           -1.3588    -0.5333     0.1415 C.2     
  15 C15           -3.9547    -1.2913     1.0739 C.ar    
  16 C16           -5.2623    -1.7238     1.1851 C.ar    
  17 C17            0.5515    -0.6076    -1.4378 C.3     
  18 C18           -6.4136    -5.1215     1.1603 C.3     
  19 C19            1.9067     1.9245    -0.1635 C.2     
  20 C20            4.2845     2.5794    -0.3229 C.2     
  21 H21            0.6982    -0.5139     0.7094 H       
  22 H22           -2.4696    -4.2368     0.3224 H       
  23 H23           -0.8944    -2.3280     0.9340 H       
  24 H24           -3.7161    -0.2495     1.2290 H       
  25 H25           -6.0445    -1.0192     1.4260 H       
  26 H26           -0.0788    -0.1939    -2.2250 H       
  27 H27            1.5834    -0.2944    -1.5964 H       
  28 H28            0.4945    -1.6959    -1.4609 H       
  29 H29           -7.1364    -5.7441     0.6331 H       
  30 H30           -6.3506    -5.4107     2.2094 H       
  31 H31            5.2711     3.0142    -0.3854 H       
@<TRIPOS>BOND
   1    1   10 1
   2    1   19 1
   3    2   19 1
   4    2   20 1
   5    3   11 1
   6    3   18 1
   7    4   12 1
   8    4   18 1
   9    5   14 2
  10    6    9 1
  11    6   14 am
  12    6   23 1
  13    7    8 1
  14    7   19 2
  15    8   20 2
  16    9   13 ar
  17    9   15 ar
  18   10   14 1
  19   10   17 1
  20   10   21 1
  21   11   12 ar
  22   11   13 ar
  23   12   16 ar
  24   13   22 1
  25   15   16 ar
  26   15   24 1
  27   16   25 1
  28   17   26 1
  29   17   27 1
  30   17   28 1
  31   18   29 1
  32   18   30 1
  33   20   31 1

#	End of record

#	Name: 16196836
#	Creating user name:	landrgr1
#	Creation time:	28. 01. 2015 13:52

#	Modifying user name:	landrgr1
#	Modification time:	28. 01. 2015 13:52

#	Program:	corina 3.48 0006  22.01.2010

@<TRIPOS>MOLECULE
16196836
  63   65    0    0    0
SMALL
NO_CHARGES


@<TRIPOS>ATOM
   1 S1             0.2467     1.1334     0.3452 S.o2    
   2 S2            -8.7468    -7.6892     5.4839 S.3     
   3 O3            -5.1213    -2.7557     2.9767 O.3     
   4 O4            -6.6900    -3.3871     4.3993 O.2     
   5 O5            -5.1822    -5.9561     5.3049 O.2     
   6 O6             0.4910    -0.1720     0.8508 O.2     
   7 O7             1.2510     2.1352     0.2620 O.2     
   8 O8            -3.4196    -1.0070     2.0309 O.2     
   9 N9            -6.7472    -5.9613     3.7274 N.am    
  10 N10           -0.3465     0.9374    -1.1884 N.am    
  11 N11           -3.8334     0.6596     3.4357 N.am    
  12 C12           -6.0938    -5.0188     2.8075 C.3     
  13 C13           -6.9709    -4.9323     1.5407 C.3     
  14 C14           -7.7737    -6.2594     1.5826 C.3     
  15 C15           -7.9945    -6.4413     3.1051 C.3     
  16 C16           -5.9905    -3.6609     3.4530 C.2     
  17 C17           -6.2803    -6.3300     4.9367 C.2     
  18 C18           -7.0950    -7.1813     5.8085 C.2     
  19 C19           -5.0757    -1.4689     3.6477 C.3     
  20 C20           -6.6927    -7.7069     7.0040 C.2     
  21 C21           -1.0522     1.8110     1.3242 C.ar    
  22 C22           -0.2231     2.0219    -2.1657 C.3     
  23 C23           -0.9947    -0.3204    -1.5680 C.3     
  24 C24           -2.9477     1.5070     2.7610 C.ar    
  25 C25           -4.0501    -0.5900     2.9794 C.2     
  26 C26           -1.9244     0.9720     1.9892 C.ar    
  27 C27           -3.0902     2.8846     2.8613 C.ar    
  28 C28           -1.1936     3.1827     1.4303 C.ar    
  29 C29           -7.6592    -8.4701     7.6152 C.2     
  30 C30           -8.8135    -8.5673     6.9453 C.2     
  31 C31           -2.2112     3.7184     2.1979 C.ar    
  32 C32            1.0302     1.8026    -3.0153 C.3     
  33 C33           -2.5087    -0.1872    -1.3923 C.3     
  34 C34           -4.1990     3.4693     3.6977 C.3     
  35 H35           -5.1005    -5.3839     2.5464 H       
  36 H36           -7.6411    -4.0743     1.5935 H       
  37 H37           -6.3514    -4.8845     0.6452 H       
  38 H38           -8.7245    -6.1575     1.0594 H       
  39 H39           -7.1895    -7.0826     1.1715 H       
  40 H40           -8.1565    -7.4928     3.3420 H       
  41 H41           -8.8408    -5.8414     3.4400 H       
  42 H42           -6.0549    -0.9937     3.5892 H       
  43 H43           -4.8041    -1.6138     4.6933 H       
  44 H44           -5.7129    -7.5398     7.4265 H       
  45 H45           -1.1020     2.0317    -2.8104 H       
  46 H46           -0.1454     2.9751    -1.6428 H       
  47 H47           -0.7683    -0.5458    -2.6101 H       
  48 H48           -0.6247    -1.1257    -0.9334 H       
  49 H49           -1.8112    -0.0990     1.9089 H       
  50 H50           -0.5075     3.8368     0.9129 H       
  51 H51           -4.2915     0.9714     4.2318 H       
  52 H52           -7.4984    -8.9559     8.5662 H       
  53 H53           -2.3215     4.7900     2.2755 H       
  54 H54           -9.6728    -9.1267     7.2845 H       
  55 H55            1.1220     2.6094    -3.7424 H       
  56 H56            1.9091     1.7927    -2.3706 H       
  57 H57            0.9525     0.8494    -3.5383 H       
  58 H58           -2.7351     0.0382    -0.3502 H       
  59 H59           -2.8787     0.6181    -2.0269 H       
  60 H60           -2.9910    -1.1230    -1.6747 H       
  61 H61           -3.8460     3.6148     4.7187 H       
  62 H62           -4.5034     4.4283     3.2784 H       
  63 H63           -5.0497     2.7878     3.7010 H       
@<TRIPOS>BOND
   1    1    6 2
   2    1    7 2
   3    1   10 am
   4    1   21 1
   5    2   18 1
   6    2   30 1
   7    3   16 1
   8    3   19 1
   9    4   16 2
  10    5   17 2
  11    8   25 2
  12    9   12 1
  13    9   15 1
  14    9   17 am
  15   10   22 1
  16   10   23 1
  17   11   24 1
  18   11   25 am
  19   11   51 1
  20   12   13 1
  21   12   16 1
  22   12   35 1
  23   13   14 1
  24   13   36 1
  25   13   37 1
  26   14   15 1
  27   14   38 1
  28   14   39 1
  29   15   40 1
  30   15   41 1
  31   17   18 1
  32   18   20 2
  33   19   25 1
  34   19   42 1
  35   19   43 1
  36   20   29 1
  37   20   44 1
  38   21   26 ar
  39   21   28 ar
  40   22   32 1
  41   22   45 1
  42   22   46 1
  43   23   33 1
  44   23   47 1
  45   23   48 1
  46   24   26 ar
  47   24   27 ar
  48   26   49 1
  49   27   31 ar
  50   27   34 1
  51   28   31 ar
  52   28   50 1
  53   29   30 2
  54   29   52 1
  55   30   54 1
  56   31   53 1
  57   32   55 1
  58   32   56 1
  59   32   57 1
  60   33   58 1
  61   33   59 1
  62   33   60 1
  63   34   61 1
  64   34   62 1
  65   34   63 1

#	End of record

#	Name: 16196774
#	Creating user name:	landrgr1
#	Creation time:	28. 01. 2015 13:52

#	Modifying user name:	landrgr1
#	Modification time:	28. 01. 2015 13:52

#	Program:	corina 3.48 0006  22.01.2010

@<TRIPOS>MOLECULE
16196774
  55   57    0    0    0
SMALL
NO_CHARGES


@<TRIPOS>ATOM
   1 S1             1.2383     2.2153     0.3136 S.o2    
   2 F2             2.3439    -0.0985    -1.1720 F       
   3 O3            -1.1370     5.5605    -1.0342 O.3     
   4 O4             1.1480     3.5216     0.8656 O.2     
   5 O5             1.0651     1.0330     1.0826 O.2     
   6 O6            -1.6222     3.8378     0.2622 O.2     
   7 O7            -1.2080     8.1095    -1.6225 O.2     
   8 O8            -4.3838    10.5933     0.8468 O.3     
   9 O9            -2.4168    14.0094    -1.8137 O.3     
  10 N10            0.1230     2.1458    -0.9085 N.am    
  11 N11           -2.3654     8.8272     0.1291 N.am    
  12 C12           -0.3868     3.2958    -1.6696 C.3     
  13 C13           -1.3796     2.7484    -2.7166 C.3     
  14 C14           -0.9476     1.2654    -2.8632 C.3     
  15 C15           -0.5184     0.9200    -1.4177 C.3     
  16 C16           -1.0940     4.2509    -0.7429 C.2     
  17 C17            2.8324     2.0975    -0.4277 C.ar    
  18 C18            3.2035     0.9407    -1.0924 C.ar    
  19 C19            3.7106     3.1616    -0.3511 C.ar    
  20 C20           -1.8352     6.4217    -0.0965 C.3     
  21 C21            4.4561     0.8498    -1.6748 C.ar    
  22 C22            4.9614     3.0696    -0.9332 C.ar    
  23 C23            5.3349     1.9135    -1.5923 C.ar    
  24 C24           -1.7797     7.8461    -0.5856 C.2     
  25 C25           -2.3795    10.1410    -0.3632 C.ar    
  26 C26           -3.3998    11.0136     0.0079 C.ar    
  27 C27           -1.3744    10.5739    -1.2153 C.ar    
  28 C28           -3.4106    12.3102    -0.4795 C.ar    
  29 C29           -1.3877    11.8680    -1.6993 C.ar    
  30 C30           -2.4063    12.7367    -1.3353 C.ar    
  31 C31           -5.3977    11.5420     1.1844 C.3     
  32 C32           -1.3518    14.3816    -2.6908 C.3     
  33 H33            0.4374     3.8037    -2.1704 H       
  34 H34           -2.4038     2.8172    -2.3499 H       
  35 H35           -1.2717     3.2769    -3.6637 H       
  36 H36           -1.7844     0.6445    -3.1831 H       
  37 H37           -0.1069     1.1695    -3.5503 H       
  38 H38            0.1917     0.0931    -1.4197 H       
  39 H39           -1.3913     0.6701    -0.8147 H       
  40 H40            3.4198     4.0655     0.1634 H       
  41 H41           -2.8751     6.1050    -0.0173 H       
  42 H42           -1.3595     6.3547     0.8819 H       
  43 H43            4.7467    -0.0520    -2.1931 H       
  44 H44            5.6470     3.9019    -0.8731 H       
  45 H45            6.3122     1.8427    -2.0463 H       
  46 H46           -2.7772     8.6251     0.9838 H       
  47 H47           -0.5807     9.8992    -1.5002 H       
  48 H48           -4.2009    12.9883    -0.1934 H       
  49 H49           -0.6041    12.2036    -2.3624 H       
  50 H50           -5.9060    11.8689     0.2772 H       
  51 H51           -6.1187    11.0790     1.8581 H       
  52 H52           -4.9418    12.4018     1.6753 H       
  53 H53           -1.3636    13.7379    -3.5703 H       
  54 H54           -1.4801    15.4194    -2.9982 H       
  55 H55           -0.3991    14.2713    -2.1727 H       
@<TRIPOS>BOND
   1    1    4 2
   2    1    5 2
   3    1   10 am
   4    1   17 1
   5    2   18 1
   6    3   16 1
   7    3   20 1
   8    6   16 2
   9    7   24 2
  10    8   26 1
  11    8   31 1
  12    9   30 1
  13    9   32 1
  14   10   12 1
  15   10   15 1
  16   11   24 am
  17   11   25 1
  18   11   46 1
  19   12   13 1
  20   12   16 1
  21   12   33 1
  22   13   14 1
  23   13   34 1
  24   13   35 1
  25   14   15 1
  26   14   36 1
  27   14   37 1
  28   15   38 1
  29   15   39 1
  30   17   18 ar
  31   17   19 ar
  32   18   21 ar
  33   19   22 ar
  34   19   40 1
  35   20   24 1
  36   20   41 1
  37   20   42 1
  38   21   23 ar
  39   21   43 1
  40   22   23 ar
  41   22   44 1
  42   23   45 1
  43   25   26 ar
  44   25   27 ar
  45   26   28 ar
  46   27   29 ar
  47   27   47 1
  48   28   30 ar
  49   28   48 1
  50   29   30 ar
  51   29   49 1
  52   31   50 1
  53   31   51 1
  54   31   52 1
  55   32   53 1
  56   32   54 1
  57   32   55 1

#	End of record

#	Name: 16196465
#	Creating user name:	landrgr1
#	Creation time:	28. 01. 2015 13:52

#	Modifying user name:	landrgr1
#	Modification time:	28. 01. 2015 13:52

#	Program:	corina 3.48 0006  22.01.2010

@<TRIPOS>MOLECULE
16196465
  54   57    0    0    0
SMALL
NO_CHARGES


@<TRIPOS>ATOM
   1 S1             0.9194     2.0955    -0.0155 S.o2    
   2 O2             0.9988     3.4359     0.4496 O.2     
   3 O3             0.6827     0.9879     0.8425 O.2     
   4 O4            -1.7023     3.9193     0.1577 O.2     
   5 O5             5.2019     3.5993    -2.3371 O.3     
   6 O6             5.9993     0.9706    -2.7836 O.3     
   7 O7            -3.3355     7.8753     3.9394 O.2     
   8 N8            -0.2794     2.0670    -1.1575 N.am    
   9 N9            -1.3929     5.5532    -1.3109 N.am    
  10 N10           -3.0696     9.4015     2.3512 N.am    
  11 C11           -0.7805     3.2309    -1.9030 C.3     
  12 C12           -1.9071     2.7301    -2.8312 C.3     
  13 C13           -1.0166     0.8693    -1.5996 C.3     
  14 C14           -2.3621     1.4142    -2.1467 C.3     
  15 C15           -1.3250     4.2581    -0.9442 C.2     
  16 C16            2.4384     1.7662    -0.8455 C.ar    
  17 C17            3.2342     2.8137    -1.2690 C.ar    
  18 C18            2.8323     0.4604    -1.0715 C.ar    
  19 C19            4.4305     2.5574    -1.9226 C.ar    
  20 C20           -1.8143     6.5208    -0.3899 C.ar    
  21 C21            4.0239     0.1981    -1.7203 C.ar    
  22 C22            4.8274     1.2447    -2.1479 C.ar    
  23 C23            6.5663     3.3035    -2.6545 C.3     
  24 C24            6.5938     2.0407    -3.5263 C.3     
  25 C25           -1.2516     7.7902    -0.4100 C.ar    
  26 C26           -2.7990     6.2124     0.5395 C.ar    
  27 C27           -1.6672     8.7439     0.4973 C.ar    
  28 C28           -3.2146     7.1661     1.4469 C.ar    
  29 C29           -2.6481     8.4339     1.4302 C.ar    
  30 C30           -3.4411     9.0330     3.5932 C.2     
  31 C31           -3.9878    10.0593     4.5518 C.3     
  32 H32            0.0238     3.6650    -2.4971 H       
  33 H33           -2.7255     3.4492    -2.8670 H       
  34 H34           -1.5228     2.5316    -3.8317 H       
  35 H35           -0.4656     0.3536    -2.3861 H       
  36 H36           -1.1931     0.2002    -0.7575 H       
  37 H37           -3.0634     1.6170    -1.3373 H       
  38 H38           -2.7943     0.7254    -2.8726 H       
  39 H39           -1.1498     5.8153    -2.2127 H       
  40 H40            2.9243     3.8328    -1.0912 H       
  41 H41            2.2078    -0.3561    -0.7402 H       
  42 H42            4.3295    -0.8229    -1.8954 H       
  43 H43            7.0056     4.1376    -3.2017 H       
  44 H44            7.1278     3.1288    -1.7367 H       
  45 H45            7.6247     1.7877    -3.7742 H       
  46 H46            6.0267     2.2128    -4.4411 H       
  47 H47           -0.4885     8.0312    -1.1353 H       
  48 H48           -3.2398     5.2266     0.5522 H       
  49 H49           -1.2293     9.7310     0.4820 H       
  50 H50           -3.9804     6.9263     2.1697 H       
  51 H51           -3.0940    10.3368     2.0951 H       
  52 H52           -3.1685    10.4953     5.1234 H       
  53 H53           -4.4982    10.8433     3.9925 H       
  54 H54           -4.6921     9.5815     5.2329 H       
@<TRIPOS>BOND
   1    1    2 2
   2    1    3 2
   3    1    8 am
   4    1   16 1
   5    4   15 2
   6    5   19 1
   7    5   23 1
   8    6   22 1
   9    6   24 1
  10    7   30 2
  11    8   11 1
  12    8   13 1
  13    9   15 am
  14    9   20 1
  15    9   39 1
  16   10   29 1
  17   10   30 am
  18   10   51 1
  19   11   12 1
  20   11   15 1
  21   11   32 1
  22   12   14 1
  23   12   33 1
  24   12   34 1
  25   13   14 1
  26   13   35 1
  27   13   36 1
  28   14   37 1
  29   14   38 1
  30   16   17 ar
  31   16   18 ar
  32   17   19 ar
  33   17   40 1
  34   18   21 ar
  35   18   41 1
  36   19   22 ar
  37   20   25 ar
  38   20   26 ar
  39   21   22 ar
  40   21   42 1
  41   23   24 1
  42   23   43 1
  43   23   44 1
  44   24   45 1
  45   24   46 1
  46   25   27 ar
  47   25   47 1
  48   26   28 ar
  49   26   48 1
  50   27   29 ar
  51   27   49 1
  52   28   29 ar
  53   28   50 1
  54   30   31 1
  55   31   52 1
  56   31   53 1
  57   31   54 1

#	End of record

#	Name: 16196463
#	Creating user name:	landrgr1
#	Creation time:	28. 01. 2015 13:52

#	Modifying user name:	landrgr1
#	Modification time:	28. 01. 2015 13:52

#	Program:	corina 3.48 0006  22.01.2010

@<TRIPOS>MOLECULE
16196463
  58   59    0    0    0
SMALL
NO_CHARGES


@<TRIPOS>ATOM
   1 Cl1           -3.7948     7.1420    11.0597 Cl      
   2 S2            -1.0105     0.3701     0.3117 S.o2    
   3 O3            -1.0014    -1.0410     0.4791 O.2     
   4 O4             0.1650     1.1319     0.0727 O.2     
   5 O5            -3.2698     3.9198     5.6322 O.3     
   6 O6            -4.2780     1.9662     5.9379 O.2     
   7 O7            -2.7460     6.3888     6.3235 O.2     
   8 N8            -2.0362     0.6847    -0.9497 N.am    
   9 N9            -3.9836     6.4936     8.1619 N.am    
  10 N10           -2.9818     9.4420    10.0253 N.ar    
  11 C11           -2.0094     1.8862    -1.7967 C.3     
  12 C12           -3.1234    -0.1964    -1.4135 C.3     
  13 C13           -3.1600     1.7536    -2.8165 C.3     
  14 C14           -4.1222     0.7482    -2.1273 C.3     
  15 C15           -1.7500     1.0387     1.7645 C.ar    
  16 C16           -2.5990     0.2567     2.5275 C.ar    
  17 C17           -1.4745     2.3416     2.1404 C.ar    
  18 C18           -3.1814     0.7739     3.6661 C.ar    
  19 C19           -2.0493     2.8711     3.2771 C.ar    
  20 C20           -2.9119     2.0895     4.0482 C.ar    
  21 C21           -3.5319     2.6501     5.2663 C.2     
  22 C22           -3.9138     4.4040     6.8401 C.3     
  23 C23           -3.5053     5.8331     7.0889 C.2     
  24 C24           -3.5358     7.7900     8.4427 C.ar    
  25 C25           -3.2174     8.6666     7.4094 C.ar    
  26 C26           -3.4030     8.2211     9.7575 C.ar    
  27 C27           -2.7788     9.9395     7.7372 C.ar    
  28 C28           -2.6724    10.2954     9.0685 C.ar    
  29 H29           -2.1580     2.7752    -1.1837 H       
  30 H30           -1.0555     1.9495    -2.3202 H       
  31 H31           -2.7379    -0.9390    -2.1121 H       
  32 H32           -3.6033    -0.6852    -0.5656 H       
  33 H33           -3.6499     2.7147    -2.9724 H       
  34 H34           -2.7943     1.3484    -3.7600 H       
  35 H35           -4.7134     0.2061    -2.8654 H       
  36 H36           -4.7665     1.2522    -1.4069 H       
  37 H37           -2.8066    -0.7608     2.2307 H       
  38 H38           -0.8076     2.9452     1.5426 H       
  39 H39           -3.8444     0.1627     4.2603 H       
  40 H40           -1.8334     3.8881     3.5693 H       
  41 H41           -4.9960     4.3509     6.7212 H       
  42 H42           -3.6106     3.7869     7.6859 H       
  43 H43           -4.6381     6.0708     8.7397 H       
  44 H44           -3.3095     8.3619     6.3773 H       
  45 H45           -2.5227    10.6455     6.9611 H       
  46 H46           -2.3314    11.2866     9.3289 H       
  47 O47            5.1650    18.1614    17.1080 O.2     
  48 N48            7.3832    18.1240    17.0973 N.am    
  49 C49            7.4031    16.6592    17.0892 C.3     
  50 C50            8.6418    18.8737    17.0893 C.3     
  51 C51            6.2070    18.7820    17.1065 C.2     
  52 H52            7.4178    16.2904    18.1148 H       
  53 H53            6.5132    16.2866    16.5819 H       
  54 H54            8.2929    16.3108    16.5650 H       
  55 H55            8.9441    19.0652    16.0597 H       
  56 H56            8.5035    19.8215    17.6096 H       
  57 H57            9.4142    18.2923    17.5927 H       
  58 H58            6.1923    19.8619    17.1124 H       
@<TRIPOS>BOND
   1    1   26 1
   2    2    3 2
   3    2    4 2
   4    2    8 am
   5    2   15 1
   6    5   21 1
   7    5   22 1
   8    6   21 2
   9    7   23 2
  10    8   11 1
  11    8   12 1
  12    9   23 am
  13    9   24 1
  14    9   43 1
  15   10   26 ar
  16   10   28 ar
  17   11   13 1
  18   11   29 1
  19   11   30 1
  20   12   14 1
  21   12   31 1
  22   12   32 1
  23   13   14 1
  24   13   33 1
  25   13   34 1
  26   14   35 1
  27   14   36 1
  28   15   16 ar
  29   15   17 ar
  30   16   18 ar
  31   16   37 1
  32   17   19 ar
  33   17   38 1
  34   18   20 ar
  35   18   39 1
  36   19   20 ar
  37   19   40 1
  38   20   21 1
  39   22   23 1
  40   22   41 1
  41   22   42 1
  42   24   25 ar
  43   24   26 ar
  44   25   27 ar
  45   25   44 1
  46   27   28 ar
  47   27   45 1
  48   28   46 1
  49   47   51 2
  50   48   49 1
  51   48   50 1
  52   48   51 am
  53   49   52 1
  54   49   53 1
  55   49   54 1
  56   50   55 1
  57   50   56 1
  58   50   57 1
  59   51   58 1

#	End of record

#	Name: 16196329
#	Creating user name:	landrgr1
#	Creation time:	28. 01. 2015 13:52

#	Modifying user name:	landrgr1
#	Modification time:	28. 01. 2015 13:52

#	Program:	corina 3.48 0006  22.01.2010

@<TRIPOS>MOLECULE
16196329
  42   42    0    0    0
SMALL
NO_CHARGES


@<TRIPOS>ATOM
   1 O1            -2.2346     1.5578     0.0213 O.2     
   2 N2            -0.0179     1.4682     0.0101 N.am    
   3 N3            -2.5432     4.1640     0.0369 N.3     
   4 C4             0.0021    -0.0041     0.0020 C.3     
   5 C5             0.6249    -0.4578    -1.3173 C.3     
   6 C6             1.2763     2.1586     0.0015 C.3     
   7 C7             1.8937     0.3025    -1.6008 C.ar    
   8 C8             2.1927     1.5067    -1.0033 C.ar    
   9 C9            -1.1783     2.1537     0.0194 C.2     
  10 C10            2.7870    -0.2513    -2.5094 C.ar    
  11 C11            3.3752     2.1604    -1.3206 C.ar    
  12 C12           -1.1632     3.6606     0.0275 C.3     
  13 C13            3.9638     0.3975    -2.8212 C.ar    
  14 C14            4.2589     1.6098    -2.2263 C.ar    
  15 C15           -2.5737     5.6119     0.2831 C.3     
  16 C16           -3.2346     3.8282    -1.2150 C.3     
  17 H17            0.5999    -0.3694     0.8370 H       
  18 H18           -1.0154    -0.3871     0.0805 H       
  19 H19            0.8504    -1.5227    -1.2598 H       
  20 H20           -0.0846    -0.2856    -2.1266 H       
  21 H21            1.1278     3.2043    -0.2680 H       
  22 H22            1.7252     2.1004     0.9931 H       
  23 H23            2.5583    -1.1983    -2.9755 H       
  24 H24            3.6054     3.1075    -0.8554 H       
  25 H25           -0.6501     4.0236    -0.8630 H       
  26 H26           -0.6415     4.0139     0.9170 H       
  27 H27            4.6527    -0.0406    -3.5282 H       
  28 H28            5.1769     2.1240    -2.4696 H       
  29 H29           -2.0196     6.1258    -0.5024 H       
  30 H30           -3.6072     5.9585     0.2849 H       
  31 H31           -2.1171     5.8259     1.2494 H       
  32 H32           -3.2585     2.7453    -1.3377 H       
  33 H33           -4.2541     4.2125    -1.1814 H       
  34 H34           -2.7044     4.2774    -2.0547 H       
  35 O35           12.5006    15.0317     6.2701 O.3     
  36 O36           11.2533    11.5764     6.2634 O.3     
  37 O37           13.5769    13.0945     6.2494 O.2     
  38 O38           10.1769    13.5137     6.2841 O.2     
  39 C39           12.5188    13.6864     6.2627 C.2     
  40 C40           11.2351    12.9218     6.2708 C.2     
  41 H41           13.3561    15.4824     6.2643 H       
  42 H42           10.3978    11.1258     6.2692 H       
@<TRIPOS>BOND
   1    1    9 2
   2    2    4 1
   3    2    6 1
   4    2    9 am
   5    3   12 1
   6    3   15 1
   7    3   16 1
   8    4    5 1
   9    4   17 1
  10    4   18 1
  11    5    7 1
  12    5   19 1
  13    5   20 1
  14    6    8 1
  15    6   21 1
  16    6   22 1
  17    7    8 ar
  18    7   10 ar
  19    8   11 ar
  20    9   12 1
  21   10   13 ar
  22   10   23 1
  23   11   14 ar
  24   11   24 1
  25   12   25 1
  26   12   26 1
  27   13   14 ar
  28   13   27 1
  29   14   28 1
  30   15   29 1
  31   15   30 1
  32   15   31 1
  33   16   32 1
  34   16   33 1
  35   16   34 1
  36   35   39 1
  37   35   41 1
  38   36   40 1
  39   36   42 1
  40   37   39 2
  41   38   40 2
  42   39   40 1

#	End of record

#	Name: 16196244
#	Creating user name:	landrgr1
#	Creation time:	28. 01. 2015 13:52

#	Modifying user name:	landrgr1
#	Modification time:	28. 01. 2015 13:52

#	Program:	corina 3.48 0006  22.01.2010

@<TRIPOS>MOLECULE
16196244
  44   44    0    0    0
SMALL
NO_CHARGES


@<TRIPOS>ATOM
   1 Cl1            0.0000     0.0000     0.0000 Cl      
   2 H2             0.0000     1.3700     0.0000 H       
   3 S3             8.6058    11.8924     7.4480 S.3     
   4 O4             6.2882    10.3331     7.4618 O.2     
   5 N5            10.8989    13.4673     7.4346 N.pl3   
   6 N6            11.2770    11.3092     7.4202 N.2     
   7 C7             6.9613     8.0757     7.4432 C.3     
   8 C8             7.2166     9.5609     7.4488 C.2     
   9 C9            10.1815    14.7445     7.4480 C.3     
  10 C10            5.4533     7.8173     7.4563 C.3     
  11 C11            7.5738     7.4577     6.1848 C.3     
  12 C12            7.5977     7.4442     8.6831 C.3     
  13 C13           12.2737    13.2970     7.4270 C.ar    
  14 C14            8.6304    10.0825     7.4381 C.3     
  15 C15           10.3367    12.2219     7.4333 C.2     
  16 C16           12.4958    11.9097     7.4154 C.ar    
  17 C17            9.9252    15.2006     6.0103 C.3     
  18 C18           13.3502    14.1702     7.4286 C.ar    
  19 C19           13.8051    11.4231     7.4019 C.ar    
  20 C20            9.1760    16.5346     6.0243 C.3     
  21 C21           14.6378    13.6735     7.4189 C.ar    
  22 C22           14.8627    12.3054     7.3996 C.ar    
  23 H23            9.2300    14.6214     7.9653 H       
  24 H24           10.7819    15.4930     7.9651 H       
  25 H25            5.0000     8.2672     6.5730 H       
  26 H26            5.2687     6.7431     7.4523 H       
  27 H27            5.0170     8.2576     8.3528 H       
  28 H28            8.6481     7.6417     6.1755 H       
  29 H29            7.3892     6.3834     6.1808 H       
  30 H30            7.1205     7.9075     5.3015 H       
  31 H31            7.1613     7.8846     9.5797 H       
  32 H32            7.4130     6.3700     8.6791 H       
  33 H33            8.6720     7.6283     8.6738 H       
  34 H34            9.1406     9.7310     6.5413 H       
  35 H35            9.1575     9.7215     8.3212 H       
  36 H36           10.8767    15.3238     5.4930 H       
  37 H37            9.3248    14.4521     5.4932 H       
  38 H38           13.1816    15.2370     7.4371 H       
  39 H39           13.9875    10.3587     7.3936 H       
  40 H40            9.7764    17.2831     6.5413 H       
  41 H41            8.9934    16.8595     5.0000 H       
  42 H42            8.2244    16.4115     6.5415 H       
  43 H43           15.4757    14.3550     7.4198 H       
  44 H44           15.8749    11.9288     7.3892 H       
@<TRIPOS>BOND
   1    1    2 1
   2    3   14 1
   3    3   15 1
   4    4    8 2
   5    5    9 1
   6    5   13 1
   7    5   15 1
   8    6   15 2
   9    6   16 1
  10    7    8 1
  11    7   10 1
  12    7   11 1
  13    7   12 1
  14    8   14 1
  15    9   17 1
  16    9   23 1
  17    9   24 1
  18   10   25 1
  19   10   26 1
  20   10   27 1
  21   11   28 1
  22   11   29 1
  23   11   30 1
  24   12   31 1
  25   12   32 1
  26   12   33 1
  27   13   16 ar
  28   13   18 ar
  29   14   34 1
  30   14   35 1
  31   16   19 ar
  32   17   20 1
  33   17   36 1
  34   17   37 1
  35   18   21 ar
  36   18   38 1
  37   19   22 ar
  38   19   39 1
  39   20   40 1
  40   20   41 1
  41   20   42 1
  42   21   22 ar
  43   21   43 1
  44   22   44 1

#	End of record

#	Name: 16196199
#	Creating user name:	landrgr1
#	Creation time:	28. 01. 2015 13:52

#	Modifying user name:	landrgr1
#	Modification time:	28. 01. 2015 13:52

#	Program:	corina 3.48 0006  22.01.2010

@<TRIPOS>MOLECULE
16196199
  51   51    0    0    0
SMALL
NO_CHARGES


@<TRIPOS>ATOM
   1 F1             7.5877     7.7862    -0.0286 F       
   2 O2             0.2118     4.0792     0.0219 O.2     
   3 N3            -0.0178     1.4648     0.0101 N.3     
   4 N4             2.4247     4.2359     0.0017 N.am    
   5 C5            -1.2924    -0.5351     0.6212 C.3     
   6 C6             0.0021    -0.0041     0.0020 C.3     
   7 C7            -1.2716    -2.0649     0.6128 C.3     
   8 C8             0.1210    -0.5046    -1.4389 C.3     
   9 C9            -1.1527    -2.5654    -0.8281 C.3     
  10 C10            0.1417    -2.0344    -1.4473 C.3     
  11 C11           -1.4113    -0.0346     2.0621 C.3     
  12 C12            1.3463     2.0098    -0.0000 C.3     
  13 C13            1.2856     3.5156     0.0087 C.2     
  14 C14            2.3658     5.6997     0.0101 C.3     
  15 C15            3.7652     6.2589    -0.0003 C.ar    
  16 C16            4.3951     6.5216    -1.2025 C.ar    
  17 C17            4.4158     6.5141     1.1925 C.ar    
  18 C18            5.6784     7.0343    -1.2132 C.ar    
  19 C19            5.6989     7.0273     1.1842 C.ar    
  20 C20            6.3330     7.2854    -0.0193 C.ar    
  21 H21           -2.1446    -0.1801     0.0418 H       
  22 H22            0.8543    -0.3591     0.5815 H       
  23 H23           -0.4194    -2.4199     1.1922 H       
  24 H24           -2.1938    -2.4432     1.0539 H       
  25 H25           -0.7313    -0.1496    -2.0183 H       
  26 H26            1.0432    -0.1263    -1.8800 H       
  27 H27           -1.1379    -3.6553    -0.8341 H       
  28 H28           -2.0050    -2.2104    -1.4076 H       
  29 H29            0.2264    -2.3910    -2.4739 H       
  30 H30            0.9940    -2.3894    -0.8679 H       
  31 H31           -1.4260     1.0553     2.0681 H       
  32 H32           -2.3334    -0.4129     2.5032 H       
  33 H33           -0.5590    -0.3896     2.6415 H       
  34 H34           -0.5563     1.8234    -0.7642 H       
  35 H35            1.8828     1.6627     0.8830 H       
  36 H36            1.8658     1.6723    -0.8968 H       
  37 H37            3.2836     3.7852    -0.0090 H       
  38 H38            1.8293     6.0468    -0.8730 H       
  39 H39            1.8463     6.0373     0.9069 H       
  40 H40            3.8843     6.3257    -2.1337 H       
  41 H41            3.9210     6.3126     2.1311 H       
  42 H42            6.1706     7.2388    -2.1526 H       
  43 H43            6.2072     7.2262     2.1162 H       
  44 O44           14.9113    16.6922     7.6622 O.3     
  45 O45           13.6641    13.2369     7.6556 O.3     
  46 O46           15.9877    14.7550     7.6415 O.2     
  47 O47           12.5877    15.1741     7.6763 O.2     
  48 C48           14.9296    15.3469     7.6548 C.2     
  49 C49           13.6459    14.5822     7.6630 C.2     
  50 H50           15.7669    17.1429     7.6565 H       
  51 H51           12.8086    12.7862     7.6613 H       
@<TRIPOS>BOND
   1    1   20 1
   2    2   13 2
   3    3    6 1
   4    3   12 1
   5    3   34 1
   6    4   13 am
   7    4   14 1
   8    4   37 1
   9    5    6 1
  10    5    7 1
  11    5   11 1
  12    5   21 1
  13    6    8 1
  14    6   22 1
  15    7    9 1
  16    7   23 1
  17    7   24 1
  18    8   10 1
  19    8   25 1
  20    8   26 1
  21    9   10 1
  22    9   27 1
  23    9   28 1
  24   10   29 1
  25   10   30 1
  26   11   31 1
  27   11   32 1
  28   11   33 1
  29   12   13 1
  30   12   35 1
  31   12   36 1
  32   14   15 1
  33   14   38 1
  34   14   39 1
  35   15   16 ar
  36   15   17 ar
  37   16   18 ar
  38   16   40 1
  39   17   19 ar
  40   17   41 1
  41   18   20 ar
  42   18   42 1
  43   19   20 ar
  44   19   43 1
  45   44   48 1
  46   44   50 1
  47   45   49 1
  48   45   51 1
  49   46   48 2
  50   47   49 2
  51   48   49 1

#	End of record

#	Name: 16196179
#	Creating user name:	landrgr1
#	Creation time:	28. 01. 2015 13:52

#	Modifying user name:	landrgr1
#	Modification time:	28. 01. 2015 13:52

#	Program:	corina 3.48 0006  22.01.2010

@<TRIPOS>MOLECULE
16196179
  35   36    0    0    0
SMALL
NO_CHARGES


@<TRIPOS>ATOM
   1 Br1            0.0000     0.0000     0.0000 Br      
   2 H2             0.0000     1.5100     0.0000 H       
   3 O3             7.3486    15.6459     5.1041 O.2     
   4 O4             9.2492    15.6674     6.0195 O.2     
   5 N5            10.3443    10.6350     5.8687 N.pl3   
   6 N6            11.9352    12.3083     5.2982 N.2     
   7 N7             8.2604    15.0562     5.6559 N.pl3   
   8 C8            10.3958     9.1823     6.0669 C.3     
   9 C9            11.8262     8.7669     5.8300 C.ar    
  10 C10           12.5401     9.9237     5.5156 C.ar    
  11 C11           11.6088    11.0715     5.5437 C.2     
  12 C12            9.2053    11.4375     5.9842 C.ar    
  13 C13           12.4651     7.5478     5.8721 C.ar    
  14 C14           13.9059     9.8347     5.2448 C.ar    
  15 C15            9.2940    12.8068     5.7695 C.ar    
  16 C16            7.9811    10.8662     6.3082 C.ar    
  17 C17            8.1668    13.5967     5.8844 C.ar    
  18 C18            6.9512    13.0258     6.2132 C.ar    
  19 C19           13.8206     7.4669     5.6024 C.ar    
  20 C20            6.8581    11.6616     6.4215 C.ar    
  21 C21           14.5368     8.6082     5.2899 C.ar    
  22 C22            5.7236    13.8909     6.3386 C.3     
  23 H23           10.0984     8.9335     7.0856 H       
  24 H24            9.7392     8.6844     5.3534 H       
  25 H25           11.9088     6.6548     6.1159 H       
  26 H26           14.4680    10.7237     5.0000 H       
  27 H27           10.2433    13.2534     5.5134 H       
  28 H28            7.9078     9.8011     6.4711 H       
  29 H29           14.3203     6.5100     5.6363 H       
  30 H30            5.9061    11.2181     6.6731 H       
  31 H31           15.5939     8.5392     5.0799 H       
  32 H32           12.8522    12.5329     5.0757 H       
  33 H33            5.2818    14.0399     5.3534 H       
  34 H34            5.0000    13.4025     6.9912 H       
  35 H35            6.0012    14.8562     6.7620 H       
@<TRIPOS>BOND
   1    1    2 1
   2    3    7 2
   3    4    7 2
   4    5    8 1
   5    5   11 1
   6    5   12 1
   7    6   11 2
   8    6   32 1
   9    7   17 1
  10    8    9 1
  11    8   23 1
  12    8   24 1
  13    9   10 ar
  14    9   13 ar
  15   10   11 1
  16   10   14 ar
  17   12   15 ar
  18   12   16 ar
  19   13   19 ar
  20   13   25 1
  21   14   21 ar
  22   14   26 1
  23   15   17 ar
  24   15   27 1
  25   16   20 ar
  26   16   28 1
  27   17   18 ar
  28   18   20 ar
  29   18   22 1
  30   19   21 ar
  31   19   29 1
  32   20   30 1
  33   21   31 1
  34   22   33 1
  35   22   34 1
  36   22   35 1

#	End of record

#	Name: 16196012
#	Creating user name:	landrgr1
#	Creation time:	28. 01. 2015 13:52

#	Modifying user name:	landrgr1
#	Modification time:	28. 01. 2015 13:52

#	Program:	corina 3.48 0006  22.01.2010

@<TRIPOS>MOLECULE
16196012
  51   51    0    0    0
SMALL
NO_CHARGES


@<TRIPOS>ATOM
   1 Cl1            5.1690     4.1569    -0.0257 Cl      
   2 O2            -0.0173     1.4248     0.0099 O.3     
   3 N3            -4.2054    -4.6314     0.0173 N.3     
   4 C4            -4.2342    -6.0847    -0.2292 C.3     
   5 C5            -4.8601    -4.3610     1.3150 C.3     
   6 C6            -4.9637    -6.7366     0.9643 C.3     
   7 C7            -5.8052    -5.5674     1.5403 C.3     
   8 C8            -2.8272    -4.1229     0.0069 C.3     
   9 C9            -2.8479    -2.5931     0.0153 C.3     
  10 C10           -1.4126    -2.0635     0.0045 C.3     
  11 C11           -1.4333    -0.5336     0.0129 C.3     
  12 C12            0.0021    -0.0041     0.0020 C.3     
  13 C13            1.1852     2.0583     0.0018 C.ar    
  14 C14            1.2401     3.4442     0.0087 C.ar    
  15 C15            2.3595     1.3194    -0.0077 C.ar    
  16 C16            2.4634     4.0863     0.0004 C.ar    
  17 C17            3.5806     1.9649    -0.0159 C.ar    
  18 C18            3.6332     3.3478    -0.0147 C.ar    
  19 C19            2.5235     5.5921     0.0074 C.3     
  20 H20           -4.7742    -6.2935    -1.1528 H       
  21 H21           -3.2167    -6.4696    -0.2970 H       
  22 H22           -4.1172    -4.3070     2.1109 H       
  23 H23           -5.4324    -3.4346     1.2656 H       
  24 H24           -5.6100    -7.5462     0.6254 H       
  25 H25           -4.2480    -7.0969     1.7032 H       
  26 H26           -6.0036    -5.7151     2.6019 H       
  27 H27           -6.7347    -5.4444     0.9844 H       
  28 H28           -2.3000    -4.4840     0.8900 H       
  29 H29           -2.3170    -4.4744    -0.8899 H       
  30 H30           -3.3751    -2.2320    -0.8677 H       
  31 H31           -3.3581    -2.2415     0.9121 H       
  32 H32           -0.8854    -2.4246     0.8875 H       
  33 H33           -0.9024    -2.4150    -0.8923 H       
  34 H34           -1.9605    -0.1726    -0.8702 H       
  35 H35           -1.9435    -0.1821     0.9097 H       
  36 H36            0.5123    -0.3556    -0.8948 H       
  37 H37            0.5293    -0.3651     0.8851 H       
  38 H38            0.3271     4.0210     0.0202 H       
  39 H39            2.3189     0.2402    -0.0082 H       
  40 H40            4.4949     1.3901    -0.0229 H       
  41 H41            2.5477     5.9500     1.0367 H       
  42 H42            3.4224     5.9222    -0.5132 H       
  43 H43            1.6440     5.9932    -0.4961 H       
  44 O44           12.4927    14.8992     7.6226 O.3     
  45 O45           11.2454    11.4439     7.6159 O.3     
  46 O46           13.5690    12.9619     7.6019 O.2     
  47 O47           10.1690    13.3811     7.6366 O.2     
  48 C48           12.5109    13.5538     7.6152 C.2     
  49 C49           11.2272    12.7892     7.6233 C.2     
  50 H50           13.3482    15.3498     7.6168 H       
  51 H51           10.3899    10.9932     7.6217 H       
@<TRIPOS>BOND
   1    1   18 1
   2    2   12 1
   3    2   13 1
   4    3    4 1
   5    3    5 1
   6    3    8 1
   7    4    6 1
   8    4   20 1
   9    4   21 1
  10    5    7 1
  11    5   22 1
  12    5   23 1
  13    6    7 1
  14    6   24 1
  15    6   25 1
  16    7   26 1
  17    7   27 1
  18    8    9 1
  19    8   28 1
  20    8   29 1
  21    9   10 1
  22    9   30 1
  23    9   31 1
  24   10   11 1
  25   10   32 1
  26   10   33 1
  27   11   12 1
  28   11   34 1
  29   11   35 1
  30   12   36 1
  31   12   37 1
  32   13   14 ar
  33   13   15 ar
  34   14   16 ar
  35   14   38 1
  36   15   17 ar
  37   15   39 1
  38   16   18 ar
  39   16   19 1
  40   17   18 ar
  41   17   40 1
  42   19   41 1
  43   19   42 1
  44   19   43 1
  45   44   48 1
  46   44   50 1
  47   45   49 1
  48   45   51 1
  49   46   48 2
  50   47   49 2
  51   48   49 1

#	End of record

#	Name: 16196002
#	Creating user name:	landrgr1
#	Creation time:	28. 01. 2015 13:52

#	Modifying user name:	landrgr1
#	Modification time:	28. 01. 2015 13:52

#	Program:	corina 3.48 0006  22.01.2010

@<TRIPOS>MOLECULE
16196002
  56   58    0    0    0
SMALL
NO_CHARGES


@<TRIPOS>ATOM
   1 Cl1            0.0000     0.0000     0.0000 Cl      
   2 F2             8.4980    12.8104    15.1694 F       
   3 F3             8.1095    10.5680    14.9703 F       
   4 F4             6.3726    11.9971    15.3704 F       
   5 O5            11.0377    12.0436     9.8382 O.2     
   6 O6            13.5320    12.1988     9.8134 O.3     
   7 O7            13.6226     6.7021     9.7922 O.3     
   8 N8             7.0478    12.3012     9.1453 N.pl3   
   9 N9             8.6389    10.9832     9.8557 N.pl3   
  10 C10            8.0055    11.5019     8.7657 C.cat   
  11 C11            8.3619    11.1806     7.3342 C.3     
  12 C12            6.1520    13.0614     8.2637 C.3     
  13 C13            8.4443    12.4743     6.5224 C.3     
  14 C14            5.9839    12.3316     6.9315 C.3     
  15 C15            7.0645    12.7982     5.9542 C.3     
  16 C16            7.0004    12.3355    10.5055 C.ar    
  17 C17            8.0198    11.4939    10.9770 C.ar    
  18 C18            9.7703    10.0527     9.8388 C.3     
  19 C19            6.1829    13.0066    11.4188 C.ar    
  20 C20            8.2096    11.3379    12.3439 C.ar    
  21 C21            7.3925    12.0107    13.2272 C.ar    
  22 C22            6.3835    12.8410    12.7600 C.ar    
  23 C23           11.0608    10.8309     9.8306 C.2     
  24 C24            7.5968    11.8435    14.7109 C.3     
  25 C25           12.3456    10.1213     9.8136 C.ar    
  26 C26           13.5504    10.8422     9.8059 C.ar    
  27 C27           12.3771     8.7214     9.8106 C.ar    
  28 C28           13.5905     8.0616     9.7950 C.ar    
  29 C29           14.7591    10.1629     9.7903 C.ar    
  30 C30           14.7792     8.7828     9.7822 C.ar    
  31 C31           14.7962    12.8648     9.8049 C.3     
  32 C32           14.9108     6.0837     9.7758 C.3     
  33 H33            9.3257    10.6723     7.3055 H       
  34 H34            7.5972    10.5321     6.9067 H       
  35 H35            5.1787    13.1685     8.7426 H       
  36 H36            6.5751    14.0497     8.0837 H       
  37 H37            8.7728    13.2890     7.1677 H       
  38 H38            9.1541    12.3469     5.7051 H       
  39 H39            6.0779    11.2575     7.0913 H       
  40 H40            5.0000    12.5526     6.5178 H       
  41 H41            6.9775    13.8742     5.8036 H       
  42 H42            6.9359    12.2872     5.0000 H       
  43 H43            9.7333     9.4196    10.7254 H       
  44 H44            9.7156     9.4304     8.9455 H       
  45 H45            5.3947    13.6548    11.0653 H       
  46 H46            8.9931    10.6927    12.7130 H       
  47 H47            5.7504    13.3611    13.4635 H       
  48 H48           11.4551     8.1590     9.8210 H       
  49 H49           15.6872    10.7151     9.7840 H       
  50 H50           15.7241     8.2599     9.7701 H       
  51 H51           15.3656    12.5747    10.6879 H       
  52 H52           15.3486    12.5843     8.9081 H       
  53 H53           14.6388    13.9433     9.8122 H       
  54 H54           14.7935     5.0000     9.7752 H       
  55 H55           15.4501     6.3913     8.8799 H       
  56 H56           15.4712     6.3880    10.6597 H       
@<TRIPOS>BOND
   1    2   24 1
   2    3   24 1
   3    4   24 1
   4    5   23 2
   5    6   26 1
   6    6   31 1
   7    7   28 1
   8    7   32 1
   9    8   10 ar
  10    8   12 1
  11    8   16 1
  12    9   10 ar
  13    9   17 1
  14    9   18 1
  15   10   11 1
  16   11   13 1
  17   11   33 1
  18   11   34 1
  19   12   14 1
  20   12   35 1
  21   12   36 1
  22   13   15 1
  23   13   37 1
  24   13   38 1
  25   14   15 1
  26   14   39 1
  27   14   40 1
  28   15   41 1
  29   15   42 1
  30   16   17 ar
  31   16   19 ar
  32   17   20 ar
  33   18   23 1
  34   18   43 1
  35   18   44 1
  36   19   22 ar
  37   19   45 1
  38   20   21 ar
  39   20   46 1
  40   21   22 ar
  41   21   24 1
  42   22   47 1
  43   23   25 1
  44   25   26 ar
  45   25   27 ar
  46   26   29 ar
  47   27   28 ar
  48   27   48 1
  49   28   30 ar
  50   29   30 ar
  51   29   49 1
  52   30   50 1
  53   31   51 1
  54   31   52 1
  55   31   53 1
  56   32   54 1
  57   32   55 1
  58   32   56 1

#	End of record

#	Name: 16195969
#	Creating user name:	landrgr1
#	Creation time:	28. 01. 2015 13:52

#	Modifying user name:	landrgr1
#	Modification time:	28. 01. 2015 13:52

#	Program:	corina 3.48 0006  22.01.2010

@<TRIPOS>MOLECULE
16195969
  32   34    0    0    0
SMALL
NO_CHARGES


@<TRIPOS>ATOM
   1 Br1            1.0626    -4.5582    -0.0328 Br      
   2 O2             5.3596     4.5000    -0.0247 O.2     
   3 N3            -0.0163     1.3497     0.0095 N.2     
   4 N4             4.0910     2.1612    -0.0251 N.pl3   
   5 N5             5.4867     2.2832    -0.0373 N.am    
   6 N6             8.2883     2.5425    -0.0619 N.ar    
   7 C7             1.3486    -0.4261    -0.0131 C.ar    
   8 C8             2.1434     0.8178    -0.0140 C.2     
   9 C9             0.0021    -0.0041     0.0020 C.ar    
  10 C10            1.6597    -1.7801    -0.0240 C.ar    
  11 C11            1.1843     1.8623     0.0008 C.2     
  12 C12           -1.0105    -0.9708     0.0069 C.ar    
  13 C13            3.5206     0.9382    -0.0261 C.2     
  14 C14            0.6445    -2.7141    -0.0174 C.ar    
  15 C15           -0.6835    -2.3067    -0.0030 C.ar    
  16 C16            7.5324     3.6336    -0.0493 C.ar    
  17 C17            6.0564     3.5046    -0.0363 C.2     
  18 C18            8.1150     4.8985    -0.0476 C.ar    
  19 C19            9.4973     5.0033    -0.0594 C.ar    
  20 C20           10.2484     3.8387    -0.0724 C.ar    
  21 C21            9.6013     2.6130    -0.0732 C.ar    
  22 H22            2.6912    -2.0998    -0.0357 H       
  23 H23            1.4118     2.9180     0.0039 H       
  24 H24           -2.0472    -0.6680     0.0188 H       
  25 H25            4.1399     0.0534    -0.0364 H       
  26 H26           -1.4688    -3.0480     0.0008 H       
  27 H27            3.5348     2.9558    -0.0158 H       
  28 H28            6.0429     1.4885    -0.0466 H       
  29 H29            7.4987     5.7854    -0.0377 H       
  30 H30            9.9779     5.9705    -0.0588 H       
  31 H31           11.3273     3.8858    -0.0821 H       
  32 H32           10.1835     1.7034    -0.0833 H       
@<TRIPOS>BOND
   1    1   14 1
   2    2   17 2
   3    3    9 1
   4    3   11 2
   5    4    5 1
   6    4   13 1
   7    4   27 1
   8    5   17 am
   9    5   28 1
  10    6   16 ar
  11    6   21 ar
  12    7    8 1
  13    7    9 ar
  14    7   10 ar
  15    8   11 1
  16    8   13 2
  17    9   12 ar
  18   10   14 ar
  19   10   22 1
  20   11   23 1
  21   12   15 ar
  22   12   24 1
  23   13   25 1
  24   14   15 ar
  25   15   26 1
  26   16   17 1
  27   16   18 ar
  28   18   19 ar
  29   18   29 1
  30   19   20 ar
  31   19   30 1
  32   20   21 ar
  33   20   31 1
  34   21   32 1

#	End of record

#	Name: 16195665
#	Creating user name:	landrgr1
#	Creation time:	28. 01. 2015 13:52

#	Modifying user name:	landrgr1
#	Modification time:	28. 01. 2015 13:52

#	Program:	corina 3.48 0006  22.01.2010

@<TRIPOS>MOLECULE
16195665
  44   45    0    0    0
SMALL
NO_CHARGES


@<TRIPOS>ATOM
   1 S1            -0.0227     1.8216     0.0121 S.3     
   2 O2            -2.6060     0.3953    -0.2712 O.2     
   3 O3             1.9275    -1.4451    -0.0247 O.2     
   4 O4            10.1400     4.0477    -0.0734 O.3     
   5 N5            -2.9555    -0.6013    -2.2222 N.am    
   6 N6             2.2430     0.7489    -0.0153 N.2     
   7 N7             2.4590     3.1294    -0.0053 N.pl3   
   8 N8             3.8594     3.0918    -0.0188 N.2     
   9 C9             0.0021    -0.0041     0.0020 C.3     
  10 C10           -0.6798    -0.5496    -1.2543 C.3     
  11 C11           -4.3839    -0.2784    -2.1819 C.3     
  12 C12           -2.1491    -0.2175    -1.2128 C.2     
  13 C13            1.4849    -0.3128    -0.0138 C.2     
  14 C14           -4.6042     1.1303    -2.7368 C.3     
  15 C15           -5.1592    -1.2879    -3.0308 C.3     
  16 C16            1.7452     1.9663    -0.0040 C.2     
  17 C17            6.0120     4.1585    -0.0341 C.ar    
  18 C18            4.5384     4.1981    -0.0200 C.2     
  19 C19            6.7450     5.3483    -0.0355 C.ar    
  20 C20            6.6801     2.9312    -0.0405 C.ar    
  21 C21            8.7821     4.0842    -0.0603 C.ar    
  22 C22            8.1224     5.3064    -0.0483 C.ar    
  23 C23            8.0577     2.8991    -0.0533 C.ar    
  24 C24           10.7543     2.7575    -0.0853 C.3     
  25 H25           -0.4696    -0.4024     0.9003 H       
  26 H26           -0.2297    -0.0968    -2.1377 H       
  27 H27           -0.5529    -1.6314    -1.2959 H       
  28 H28           -4.7375    -0.3226    -1.1518 H       
  29 H29           -2.5902    -1.0914    -2.9753 H       
  30 H30           -4.2507     1.1744    -3.7669 H       
  31 H31           -5.6670     1.3706    -2.7068 H       
  32 H32           -4.0519     1.8495    -2.1319 H       
  33 H33           -5.0023    -2.2915    -2.6355 H       
  34 H34           -6.2220    -1.0477    -3.0008 H       
  35 H35           -4.8056    -1.2438    -4.0610 H       
  36 H36            1.9968     3.9822     0.0031 H       
  37 H37            4.0238     5.1476    -0.0106 H       
  38 H38            6.2329     6.2991    -0.0268 H       
  39 H39            6.1176     2.0092    -0.0350 H       
  40 H40            8.6897     6.2254    -0.0493 H       
  41 H41            8.5749     1.9510    -0.0578 H       
  42 H42           10.4550     2.2044     0.8049 H       
  43 H43           10.4381     2.2128    -0.9749 H       
  44 H44           11.8383     2.8713    -0.0950 H       
@<TRIPOS>BOND
   1    1    9 1
   2    1   16 1
   3    2   12 2
   4    3   13 2
   5    4   21 1
   6    4   24 1
   7    5   11 1
   8    5   12 am
   9    5   29 1
  10    6   13 1
  11    6   16 2
  12    7    8 1
  13    7   16 1
  14    7   36 1
  15    8   18 2
  16    9   10 1
  17    9   13 1
  18    9   25 1
  19   10   12 1
  20   10   26 1
  21   10   27 1
  22   11   14 1
  23   11   15 1
  24   11   28 1
  25   14   30 1
  26   14   31 1
  27   14   32 1
  28   15   33 1
  29   15   34 1
  30   15   35 1
  31   17   18 1
  32   17   19 ar
  33   17   20 ar
  34   18   37 1
  35   19   22 ar
  36   19   38 1
  37   20   23 ar
  38   20   39 1
  39   21   22 ar
  40   21   23 ar
  41   22   40 1
  42   23   41 1
  43   24   42 1
  44   24   43 1
  45   24   44 1

#	End of record

#	Name: 16195595
#	Creating user name:	landrgr1
#	Creation time:	28. 01. 2015 13:52

#	Modifying user name:	landrgr1
#	Modification time:	28. 01. 2015 13:52

#	Program:	corina 3.48 0006  22.01.2010

@<TRIPOS>MOLECULE
16195595
  50   53    0    0    0
SMALL
NO_CHARGES


@<TRIPOS>ATOM
   1 Br1            4.3081    -9.2740     3.0477 Br      
   2 O2             2.9981    -2.1121     2.2048 O.3     
   3 O3             2.7720     0.0337     1.5139 O.3     
   4 O4            -2.2960    -6.8068     0.5497 O.2     
   5 O5            -0.3039    -6.5453     2.2167 O.2     
   6 O6            -9.0647    -8.6030     2.0455 O.3     
   7 O7            -8.0072    -9.8781     0.5672 O.2     
   8 N8            -0.0826    -5.1241     0.5242 N.am    
   9 N9            -3.7748    -5.1734     0.8369 N.am    
  10 C10           -0.5118    -2.4023     0.9836 C.ar    
  11 C11            1.7429    -1.9491     1.6927 C.ar    
  12 C12            1.6041    -0.6273     1.2670 C.ar    
  13 C13            0.6916    -2.8338     1.5528 C.ar    
  14 C14           -1.6338    -3.3394     0.8326 C.2     
  15 C15           -0.6431    -1.0754     0.5582 C.ar    
  16 C16           -1.3943    -4.6639     0.6821 C.2     
  17 C17            0.4102    -0.1993     0.7019 C.ar    
  18 C18            3.7607    -0.9932     1.7154 C.3     
  19 C19           -2.5111    -5.6167     0.6848 C.2     
  20 C20           -4.8251    -6.0830     0.9325 C.ar    
  21 C21            0.4135    -6.0490     1.3698 C.2     
  22 C22            1.8296    -6.4599     1.2674 C.ar    
  23 C23           -4.8008    -7.2533     0.1795 C.ar    
  24 C24           -5.8939    -5.8224     1.7852 C.ar    
  25 C25           -6.9148    -7.8932     1.1231 C.ar    
  26 C26           -5.8370    -8.1543     0.2715 C.ar    
  27 C27           -6.9330    -6.7195     1.8828 C.ar    
  28 C28            2.3187    -7.4940     2.0669 C.ar    
  29 C29            2.6822    -5.8191     0.3665 C.ar    
  30 C30            3.6425    -7.8732     1.9659 C.ar    
  31 C31            4.0026    -6.2074     0.2753 C.ar    
  32 C32            4.4835    -7.2295     1.0745 C.ar    
  33 C33           -8.0268    -8.8562     1.2243 C.2     
  34 H34            0.7979    -3.8568     1.8823 H       
  35 H35           -2.6493    -2.9718     0.8415 H       
  36 H36           -1.5701    -0.7383     0.1183 H       
  37 H37            0.3068     0.8246     0.3740 H       
  38 H38            4.4954    -0.6773     2.4560 H       
  39 H39            4.2487    -1.2450     0.7738 H       
  40 H40            0.4698    -4.7775    -0.1938 H       
  41 H41           -3.9527    -4.2209     0.8799 H       
  42 H42           -3.9680    -7.4544    -0.4781 H       
  43 H43           -5.9076    -4.9153     2.3713 H       
  44 H44           -5.8179    -9.0619    -0.3136 H       
  45 H45           -7.7616    -6.5170     2.5452 H       
  46 H46            1.6634    -7.9963     2.7631 H       
  47 H47            2.3085    -5.0211    -0.2580 H       
  48 H48            4.6629    -5.7122    -0.4214 H       
  49 H49            5.5183    -7.5293     0.9993 H       
  50 H50           -9.7700    -9.2637     2.0782 H       
@<TRIPOS>BOND
   1    1   30 1
   2    2   11 1
   3    2   18 1
   4    3   12 1
   5    3   18 1
   6    4   19 2
   7    5   21 2
   8    6   33 1
   9    6   50 1
  10    7   33 2
  11    8   16 1
  12    8   21 am
  13    8   40 1
  14    9   19 am
  15    9   20 1
  16    9   41 1
  17   10   13 ar
  18   10   14 1
  19   10   15 ar
  20   11   12 ar
  21   11   13 ar
  22   12   17 ar
  23   13   34 1
  24   14   16 2
  25   14   35 1
  26   15   17 ar
  27   15   36 1
  28   16   19 1
  29   17   37 1
  30   18   38 1
  31   18   39 1
  32   20   23 ar
  33   20   24 ar
  34   21   22 1
  35   22   28 ar
  36   22   29 ar
  37   23   26 ar
  38   23   42 1
  39   24   27 ar
  40   24   43 1
  41   25   26 ar
  42   25   27 ar
  43   25   33 1
  44   26   44 1
  45   27   45 1
  46   28   30 ar
  47   28   46 1
  48   29   31 ar
  49   29   47 1
  50   30   32 ar
  51   31   32 ar
  52   31   48 1
  53   32   49 1

#	End of record

#	Name: 16195471
#	Creating user name:	landrgr1
#	Creation time:	28. 01. 2015 13:52

#	Modifying user name:	landrgr1
#	Modification time:	28. 01. 2015 13:52

#	Program:	corina 3.48 0006  22.01.2010

@<TRIPOS>MOLECULE
16195471
  53   55    0    0    0
SMALL
NO_CHARGES


@<TRIPOS>ATOM
   1 S1             0.0838     0.6846    -0.0135 S.o2    
   2 O2            -0.0265    -0.7203    -0.1961 O.2     
   3 O3             1.3297     1.3659     0.0396 O.2     
   4 O4            -1.6765     1.2282    -6.0803 O.2     
   5 O5            -2.7080     1.9312     5.0177 O.3     
   6 O6            -1.2818     1.4123   -11.7739 O.2     
   7 N7            -0.7802     1.3848    -1.2405 N.am    
   8 N8            -0.1589     2.8483    -5.9943 N.am    
   9 N9             0.1537     3.0891   -11.5500 N.am    
  10 C10           -0.4969     2.7589    -1.6893 C.3     
  11 C11           -0.0470     2.6952    -3.1511 C.3     
  12 C12           -1.8561     0.6578    -1.9292 C.3     
  13 C13           -0.9543     1.7974    -3.9389 C.2     
  14 C14           -1.7433     0.8959    -3.4095 C.2     
  15 C15           -0.7520     1.0579     1.4920 C.ar    
  16 C16           -0.9559     1.9363    -5.4030 C.2     
  17 C17           -1.7295     0.2041     1.9688 C.ar    
  18 C18           -0.4253     2.2012     2.1976 C.ar    
  19 C19           -2.3859     0.4942     3.1491 C.ar    
  20 C20           -1.0788     2.4958     3.3785 C.ar    
  21 C21           -0.0805     2.9088    -7.3906 C.ar    
  22 C22           -2.0637     1.6435     3.8563 C.ar    
  23 C23            0.1106     4.1305    -8.0231 C.ar    
  24 C24           -0.1880     1.7465    -8.1432 C.ar    
  25 C25            0.0752     3.0285   -10.1528 C.ar    
  26 C26            0.1884     4.1900    -9.4000 C.ar    
  27 C27           -0.1101     1.8062    -9.5201 C.ar    
  28 C28           -2.3246     3.1311     5.6923 C.3     
  29 C29           -0.5993     2.2636   -12.3037 C.2     
  30 C30           -0.5933     2.3983   -13.8047 C.3     
  31 H31           -1.3982     3.3665    -1.6073 H       
  32 H32            0.2959     3.1902    -1.0781 H       
  33 H33           -0.0705     3.6972    -3.5795 H       
  34 H34            0.9715     2.3098    -3.1983 H       
  35 H35           -1.7645    -0.4088    -1.7238 H       
  36 H36           -2.8226     1.0162    -1.5752 H       
  37 H37           -2.3439     0.2912    -4.0728 H       
  38 H38           -1.9803    -0.6903     1.4177 H       
  39 H39            0.3417     2.8642     1.8255 H       
  40 H40            0.3603     3.4627    -5.4522 H       
  41 H41           -3.1496    -0.1728     3.5209 H       
  42 H42           -0.8230     3.3888     3.9295 H       
  43 H43            0.1980     5.0339    -7.4378 H       
  44 H44           -0.3321     0.7959    -7.6512 H       
  45 H45            0.3370     5.1400    -9.8919 H       
  46 H46           -0.1937     0.9024   -10.1054 H       
  47 H47            0.7500     3.7251   -11.9752 H       
  48 H48           -1.2664     3.0814     5.9490 H       
  49 H49           -2.5004     3.9866     5.0402 H       
  50 H50           -2.9144     3.2407     6.6023 H       
  51 H51           -1.3751     3.0937   -14.1102 H       
  52 H52            0.3759     2.7746   -14.1318 H       
  53 H53           -0.7765     1.4239   -14.2576 H       
@<TRIPOS>BOND
   1    1    2 2
   2    1    3 2
   3    1    7 am
   4    1   15 1
   5    4   16 2
   6    5   22 1
   7    5   28 1
   8    6   29 2
   9    7   10 1
  10    7   12 1
  11    8   16 am
  12    8   21 1
  13    8   40 1
  14    9   25 1
  15    9   29 am
  16    9   47 1
  17   10   11 1
  18   10   31 1
  19   10   32 1
  20   11   13 1
  21   11   33 1
  22   11   34 1
  23   12   14 1
  24   12   35 1
  25   12   36 1
  26   13   14 2
  27   13   16 1
  28   14   37 1
  29   15   17 ar
  30   15   18 ar
  31   17   19 ar
  32   17   38 1
  33   18   20 ar
  34   18   39 1
  35   19   22 ar
  36   19   41 1
  37   20   22 ar
  38   20   42 1
  39   21   23 ar
  40   21   24 ar
  41   23   26 ar
  42   23   43 1
  43   24   27 ar
  44   24   44 1
  45   25   26 ar
  46   25   27 ar
  47   26   45 1
  48   27   46 1
  49   28   48 1
  50   28   49 1
  51   28   50 1
  52   29   30 1
  53   30   51 1
  54   30   52 1
  55   30   53 1

#	End of record

#	Name: 16195319
#	Creating user name:	landrgr1
#	Creation time:	28. 01. 2015 13:52

#	Modifying user name:	landrgr1
#	Modification time:	28. 01. 2015 13:52

#	Program:	corina 3.48 0006  22.01.2010

@<TRIPOS>MOLECULE
16195319
  46   49    0    0    0
SMALL
NO_CHARGES


@<TRIPOS>ATOM
   1 Cl1            2.1575     3.7166     3.5881 Cl      
   2 F2            -1.1343     3.6091    -0.3130 F       
   3 O3            -0.0164     1.3582     0.0095 O.3     
   4 O4             3.1823     2.0259    -1.2708 O.2     
   5 O5             1.6980    -0.0422    -3.6688 O.2     
   6 O6             5.1910    -1.2066    -7.1444 O.3     
   7 N7             2.1651     0.0360    -1.0892 N.am    
   8 N8             3.5103    -1.1463    -4.3160 N.am    
   9 C9             1.0905    -0.6810    -0.5470 C.ar    
  10 C10            3.1669    -0.6368    -1.9199 C.3     
  11 C11            0.0021    -0.0041     0.0020 C.ar    
  12 C12            2.2611     1.3628    -0.8320 C.2     
  13 C13            1.2058     1.9741     0.0011 C.2     
  14 C14            1.1065    -2.0677    -0.5544 C.ar    
  15 C15            2.7380    -0.5865    -3.3637 C.2     
  16 C16           -1.0571    -0.7172     0.5370 C.ar    
  17 C17            1.4369     3.0934     0.7237 C.2     
  18 C18            0.0446    -2.7728    -0.0190 C.ar    
  19 C19            3.0934    -1.0974    -5.7196 C.3     
  20 C20           -1.0337    -2.1003     0.5254 C.ar    
  21 C21            0.3626     3.6752     1.5420 C.ar    
  22 C22            4.1239    -1.7895    -6.5740 C.2     
  23 C23            0.5965     4.0000     2.8835 C.ar    
  24 C24           -0.8992     3.9131     0.9822 C.ar    
  25 C25            4.1307    -3.0957    -6.8952 C.2     
  26 C26           -0.4172     4.5455     3.6442 C.ar    
  27 C27           -1.9025     4.4600     1.7590 C.ar    
  28 C28            5.2683    -3.3121    -7.7064 C.2     
  29 C29           -1.6630     4.7722     3.0852 C.ar    
  30 C30            5.8886    -2.1252    -7.8324 C.2     
  31 H31            4.1278    -0.1345    -1.8086 H       
  32 H32            3.2614    -1.6760    -1.6050 H       
  33 H33            1.9474    -2.5963    -0.9786 H       
  34 H34           -1.9005    -0.1943     0.9632 H       
  35 H35            2.4105     3.5602     0.6997 H       
  36 H36            4.3421    -1.5816    -4.0720 H       
  37 H37            0.0577    -3.8527    -0.0255 H       
  38 H38            2.1324    -1.5997    -5.8309 H       
  39 H39            2.9988    -0.0582    -6.0345 H       
  40 H40           -1.8600    -2.6563     0.9432 H       
  41 H41            3.4065    -3.8370    -6.5913 H       
  42 H42           -0.2381     4.7961     4.6794 H       
  43 H43           -2.8760     4.6447     1.3296 H       
  44 H44            5.5797    -4.2504    -8.1412 H       
  45 H45           -2.4516     5.1995     3.6868 H       
  46 H46            6.7940    -1.9420    -8.3918 H       
@<TRIPOS>BOND
   1    1   23 1
   2    2   24 1
   3    3   11 1
   4    3   13 1
   5    4   12 2
   6    5   15 2
   7    6   22 1
   8    6   30 1
   9    7    9 1
  10    7   10 1
  11    7   12 am
  12    8   15 am
  13    8   19 1
  14    8   36 1
  15    9   11 ar
  16    9   14 ar
  17   10   15 1
  18   10   31 1
  19   10   32 1
  20   11   16 ar
  21   12   13 1
  22   13   17 2
  23   14   18 ar
  24   14   33 1
  25   16   20 ar
  26   16   34 1
  27   17   21 1
  28   17   35 1
  29   18   20 ar
  30   18   37 1
  31   19   22 1
  32   19   38 1
  33   19   39 1
  34   20   40 1
  35   21   23 ar
  36   21   24 ar
  37   22   25 2
  38   23   26 ar
  39   24   27 ar
  40   25   28 1
  41   25   41 1
  42   26   29 ar
  43   26   42 1
  44   27   29 ar
  45   27   43 1
  46   28   30 2
  47   28   44 1
  48   29   45 1
  49   30   46 1

#	End of record

#	Name: 16195312
#	Creating user name:	landrgr1
#	Creation time:	28. 01. 2015 13:52

#	Modifying user name:	landrgr1
#	Modification time:	28. 01. 2015 13:52

#	Program:	corina 3.48 0006  22.01.2010

@<TRIPOS>MOLECULE
16195312
  47   49    0    0    0
SMALL
NO_CHARGES


@<TRIPOS>ATOM
   1 O1            -0.2087     1.3609     1.2216 O.3     
   2 O2            -3.6262    -2.3313     1.0807 O.2     
   3 O3            -2.2834    -6.8176     0.4194 O.2     
   4 N4            -2.5160    -4.2266     0.7530 N.am    
   5 N5            -4.1281    -8.7324     0.3525 N.pl3   
   6 N6            -4.4267    -7.3769     0.5428 N.am    
   7 N7            -4.9809   -13.2010    -0.0448 N.2     
   8 N8            -3.7601   -12.8719    -0.2457 N.2     
   9 C9            -5.7324   -12.1419     0.2029 C.2     
  10 C10           -7.1856   -12.1190     0.4828 C.ar    
  11 C11           -4.8177   -10.9899     0.1413 C.2     
  12 C12           -1.3075    -2.1023     0.9018 C.ar    
  13 C13           -3.7559    -5.0068     0.7692 C.3     
  14 C14           -2.5589    -2.8897     0.9182 C.2     
  15 C15           -5.1151    -9.6398     0.3308 C.2     
  16 C16           -8.0132   -13.1198    -0.0275 C.ar    
  17 C17           -7.7329   -11.0999     1.2630 C.ar    
  18 C18           -1.3490    -0.7186     1.0726 C.ar    
  19 C19           -0.0798    -2.7418     0.7211 C.ar    
  20 C20           -3.5625   -11.5787    -0.1564 C.2     
  21 C21           -0.1728     0.0124     1.0560 C.ar    
  22 C22           -3.4347    -6.4649     0.5645 C.2     
  23 C23            1.0859    -2.0040     0.7063 C.ar    
  24 C24           -9.3669   -13.0931     0.2374 C.ar    
  25 C25           -9.0882   -11.0845     1.5207 C.ar    
  26 C26            1.0428    -0.6315     0.8700 C.ar    
  27 C27           -9.9043   -12.0766     1.0070 C.ar    
  28 C28            1.0420     2.0515     1.1936 C.3     
  29 H29           -4.2550    -4.8760     1.7294 H       
  30 H30           -4.4117    -4.6635    -0.0309 H       
  31 H31           -6.1403    -9.3257     0.4601 H       
  32 H32           -1.6643    -4.6722     0.6233 H       
  33 H33           -7.5950   -13.9134    -0.6289 H       
  34 H34           -7.0968   -10.3249     1.6645 H       
  35 H35           -2.2954    -0.2187     1.2169 H       
  36 H36           -0.0425    -3.8136     0.5933 H       
  37 H37           -2.6233   -11.0610    -0.2846 H       
  38 H38           -3.2073    -9.0145     0.2364 H       
  39 H39           -5.3475    -7.0948     0.6588 H       
  40 H40            2.0351    -2.4999     0.5664 H       
  41 H41            1.9585    -0.0591     0.8571 H       
  42 H42          -10.0085   -13.8672    -0.1570 H       
  43 H43           -9.5129   -10.2964     2.1247 H       
  44 H44          -10.9647   -12.0598     1.2109 H       
  45 H45            0.8712     3.1185     1.3372 H       
  46 H46            1.6827     1.6755     1.9912 H       
  47 H47            1.5262     1.8875     0.2309 H       
@<TRIPOS>BOND
   1    1   21 1
   2    1   28 1
   3    2   14 2
   4    3   22 2
   5    4   13 1
   6    4   14 am
   7    4   32 1
   8    5    6 1
   9    5   15 1
  10    5   38 1
  11    6   22 am
  12    6   39 1
  13    7    8 1
  14    7    9 2
  15    8   20 2
  16    9   10 1
  17    9   11 1
  18   10   16 ar
  19   10   17 ar
  20   11   15 2
  21   11   20 1
  22   12   14 1
  23   12   18 ar
  24   12   19 ar
  25   13   22 1
  26   13   29 1
  27   13   30 1
  28   15   31 1
  29   16   24 ar
  30   16   33 1
  31   17   25 ar
  32   17   34 1
  33   18   21 ar
  34   18   35 1
  35   19   23 ar
  36   19   36 1
  37   20   37 1
  38   21   26 ar
  39   23   26 ar
  40   23   40 1
  41   24   27 ar
  42   24   42 1
  43   25   27 ar
  44   25   43 1
  45   26   41 1
  46   27   44 1
  47   28   45 1
  48   28   46 1
  49   28   47 1

#	End of record

#	Name: 16195303
#	Creating user name:	landrgr1
#	Creation time:	28. 01. 2015 13:52

#	Modifying user name:	landrgr1
#	Modification time:	28. 01. 2015 13:52

#	Program:	corina 3.48 0006  22.01.2010

@<TRIPOS>MOLECULE
16195303
  41   43    0    0    0
SMALL
NO_CHARGES


@<TRIPOS>ATOM
   1 O1            -0.0163     1.3503     0.0095 O.3     
   2 O2            -2.0838    -0.0697     1.1588 O.3     
   3 O3             1.3820     2.9695     0.6625 O.2     
   4 O4             4.2190     1.7120    -2.0531 O.2     
   5 O5             4.5693     9.8858    -0.4044 O.3     
   6 C6             1.0790    -0.6961    -0.5795 C.ar    
   7 C7             0.0021    -0.0041     0.0020 C.ar    
   8 C8             2.1838     0.0259    -1.1009 C.2     
   9 C9             2.2541     1.3870    -0.8343 C.2     
  10 C10           -1.0480    -0.7241     0.5692 C.ar    
  11 C11            1.0602    -2.0985    -0.6272 C.ar    
  12 C12            1.1864     1.9669     0.0013 C.2     
  13 C13           -1.0323    -2.1068     0.5305 C.ar    
  14 C14            0.0182    -2.7841    -0.0728 C.ar    
  15 C15            3.3500     2.2174    -1.3649 C.2     
  16 C16            4.4440     5.8464    -1.2507 C.ar    
  17 C17            3.3944     3.6475    -1.0653 C.2     
  18 C18            4.3994     4.4091    -1.5518 C.2     
  19 C19            5.4841     6.6377    -1.7536 C.ar    
  20 C20            3.4434     6.4309    -0.4647 C.ar    
  21 C21            4.5281     8.5580    -0.6826 C.ar    
  22 C22            5.5211     7.9837    -1.4684 C.ar    
  23 C23            3.4899     7.7779    -0.1856 C.ar    
  24 C24           -3.1243    -0.8733     1.7188 C.3     
  25 C25            3.5180    10.4112     0.4085 C.3     
  26 H26            2.9456    -0.4673    -1.6864 H       
  27 H27            1.8689    -2.6344    -1.1016 H       
  28 H28           -1.8443    -2.6640     0.9738 H       
  29 H29            0.0108    -3.8636    -0.1045 H       
  30 H30            2.6240     4.0956    -0.4552 H       
  31 H31            5.1697     3.9610    -2.1620 H       
  32 H32            6.2560     6.1925    -2.3637 H       
  33 H33            2.6364     5.8260    -0.0784 H       
  34 H34            6.3230     8.5948    -1.8554 H       
  35 H35            2.7185     8.2298     0.4203 H       
  36 H36           -2.7082    -1.5196     2.4917 H       
  37 H37           -3.8862    -0.2281     2.1562 H       
  38 H38           -3.5721    -1.4853     0.9358 H       
  39 H39            2.5600    10.2448    -0.0841 H       
  40 H40            3.5212     9.9091     1.3759 H       
  41 H41            3.6709    11.4807     0.5537 H       
@<TRIPOS>BOND
   1    1    7 1
   2    1   12 1
   3    2   10 1
   4    2   24 1
   5    3   12 2
   6    4   15 2
   7    5   21 1
   8    5   25 1
   9    6    7 ar
  10    6    8 1
  11    6   11 ar
  12    7   10 ar
  13    8    9 2
  14    8   26 1
  15    9   12 1
  16    9   15 1
  17   10   13 ar
  18   11   14 ar
  19   11   27 1
  20   13   14 ar
  21   13   28 1
  22   14   29 1
  23   15   17 1
  24   16   18 1
  25   16   19 ar
  26   16   20 ar
  27   17   18 2
  28   17   30 1
  29   18   31 1
  30   19   22 ar
  31   19   32 1
  32   20   23 ar
  33   20   33 1
  34   21   22 ar
  35   21   23 ar
  36   22   34 1
  37   23   35 1
  38   24   36 1
  39   24   37 1
  40   24   38 1
  41   25   39 1
  42   25   40 1
  43   25   41 1

#	End of record

#	Name: 16195300
#	Creating user name:	landrgr1
#	Creation time:	28. 01. 2015 13:52

#	Modifying user name:	landrgr1
#	Modification time:	28. 01. 2015 13:52

#	Program:	corina 3.48 0006  22.01.2010

@<TRIPOS>MOLECULE
16195300
  29   30    0    0    0
SMALL
NO_CHARGES


@<TRIPOS>ATOM
   1 S1            -0.0220     1.7706     0.0118 S.3     
   2 S2            -2.2549    -4.0237     3.5323 S.3     
   3 S3             2.6264     3.4031    -0.0042 S.2     
   4 S4            -5.0522    -5.1077     4.3567 S.2     
   5 O5             1.8418    -1.4888    -0.0239 O.2     
   6 O6            -3.4802    -3.1170     0.1008 O.2     
   7 N7             2.2522     0.7008    -0.0157 N.am    
   8 N8            -4.2402    -4.0185     1.9908 N.am    
   9 C9            -0.8114    -2.3314    -0.0036 C.3     
  10 C10           -1.0412    -0.8421     0.0071 C.2     
  11 C11           -0.8438    -2.8548     1.4092 C.2     
  12 C12            0.0021    -0.0041     0.0020 C.2     
  13 C13           -1.9787    -3.3555     1.9114 C.2     
  14 C14           -2.4459    -0.2965     0.0235 C.3     
  15 C15            0.4018    -2.8144     2.2565 C.3     
  16 C16            1.4382    -0.3418    -0.0135 C.2     
  17 C17           -3.2892    -3.4802     1.2454 C.2     
  18 C18            1.7422     1.9371    -0.0042 C.2     
  19 C19           -3.9629    -4.3971     3.2433 C.2     
  20 H20           -1.5935    -2.8155    -0.5884 H       
  21 H21            0.1603    -2.5460    -0.4483 H       
  22 H22           -2.7748    -0.1708     1.0550 H       
  23 H23           -2.4671     0.6676    -0.4847 H       
  24 H24           -3.1116    -0.9916    -0.4880 H       
  25 H25            0.4405    -1.8708     2.8008 H       
  26 H26            0.3861    -3.6423     2.9654 H       
  27 H27            1.2797    -2.9008     1.6163 H       
  28 H28            3.2133     0.5694    -0.0259 H       
  29 H29           -5.1331    -4.1381     1.6312 H       
@<TRIPOS>BOND
   1    1   12 1
   2    1   18 1
   3    2   13 1
   4    2   19 1
   5    3   18 2
   6    4   19 2
   7    5   16 2
   8    6   17 2
   9    7   16 am
  10    7   18 am
  11    7   28 1
  12    8   17 am
  13    8   19 am
  14    8   29 1
  15    9   10 1
  16    9   11 1
  17    9   20 1
  18    9   21 1
  19   10   12 2
  20   10   14 1
  21   11   13 2
  22   11   15 1
  23   12   16 1
  24   13   17 1
  25   14   22 1
  26   14   23 1
  27   14   24 1
  28   15   25 1
  29   15   26 1
  30   15   27 1

#	End of record

#	Name: 16195170
#	Creating user name:	landrgr1
#	Creation time:	28. 01. 2015 13:52

#	Modifying user name:	landrgr1
#	Modification time:	28. 01. 2015 13:52

#	Program:	corina 3.48 0006  22.01.2010

@<TRIPOS>MOLECULE
16195170
  39   40    0    0    0
SMALL
NO_CHARGES


@<TRIPOS>ATOM
   1 Cl1            0.0000     0.0000     0.0000 Cl      
   2 O2             5.9449    14.1373    11.0171 O.3     
   3 O3             5.5472    11.9794    11.2793 O.2     
   4 N4             9.7581     7.0273    10.2690 N.pl3   
   5 N5             9.1738     8.6693     8.5609 N.ar    
   6 C6             9.6592     9.1709    10.8816 C.2     
   7 C7             9.4807    10.6667    10.8401 C.3     
   8 C8            10.0221     8.3698    12.0495 C.ar    
   9 C9             9.5137     8.3116     9.8427 C.2     
  10 C10           10.0706     7.0325    11.6109 C.ar    
  11 C11            8.0004    11.0089    11.0199 C.3     
  12 C12           10.2988     8.6753    13.3848 C.ar    
  13 C13            7.8090    12.5224    10.9034 C.3     
  14 C14           10.3958     6.0299    12.5180 C.ar    
  15 C15           10.6153     7.6735    14.2584 C.ar    
  16 C16           10.6658     6.3542    13.8300 C.ar    
  17 C17            8.1910     8.0225     7.9464 C.ar    
  18 C18            9.8321     9.6573     7.9674 C.ar    
  19 C19            6.3509    12.8595    11.0804 C.2     
  20 C20            7.8246     8.3573     6.6593 C.ar    
  21 C21            9.5153    10.0414     6.6809 C.ar    
  22 C22            8.4961     9.3824     6.0079 C.ar    
  23 H23           10.0594    11.1240    11.6427 H       
  24 H24            9.8277    11.0475     9.8796 H       
  25 H25            7.4155    10.5083    10.2483 H       
  26 H26            7.6670    10.6751    12.0025 H       
  27 H27            9.7131     6.2359     9.7098 H       
  28 H28           10.2623     9.6996    13.7252 H       
  29 H29            8.3939    13.0230    11.6750 H       
  30 H30            8.1424    12.8562     9.9208 H       
  31 H31           10.4364     5.0000    12.1953 H       
  32 H32           10.8291     7.9102    15.2903 H       
  33 H33           10.9178     5.5735    14.5325 H       
  34 H34            7.6730     7.2256     8.4593 H       
  35 H35           10.6239    10.1660     8.4973 H       
  36 H36            7.0243     7.8275     6.1640 H       
  37 H37           10.0541    10.8463     6.2030 H       
  38 H38            8.2288     9.6636     5.0000 H       
  39 H39            5.0000    14.3042    11.1368 H       
@<TRIPOS>BOND
   1    2   19 1
   2    2   39 1
   3    3   19 2
   4    4    9 1
   5    4   10 1
   6    4   27 1
   7    5    9 1
   8    5   17 ar
   9    5   18 ar
  10    6    7 1
  11    6    8 1
  12    6    9 2
  13    7   11 1
  14    7   23 1
  15    7   24 1
  16    8   10 ar
  17    8   12 ar
  18   10   14 ar
  19   11   13 1
  20   11   25 1
  21   11   26 1
  22   12   15 ar
  23   12   28 1
  24   13   19 1
  25   13   29 1
  26   13   30 1
  27   14   16 ar
  28   14   31 1
  29   15   16 ar
  30   15   32 1
  31   16   33 1
  32   17   20 ar
  33   17   34 1
  34   18   21 ar
  35   18   35 1
  36   20   22 ar
  37   20   36 1
  38   21   22 ar
  39   21   37 1
  40   22   38 1

#	End of record

#	Name: 16195069
#	Creating user name:	landrgr1
#	Creation time:	28. 01. 2015 13:52

#	Modifying user name:	landrgr1
#	Modification time:	28. 01. 2015 13:52

#	Program:	corina 3.48 0006  22.01.2010

@<TRIPOS>MOLECULE
16195069
  40   41    0    0    0
SMALL
NO_CHARGES


@<TRIPOS>ATOM
   1 O1             1.7179     2.7424    -0.1304 O.2     
   2 O2             4.2407     2.2111     0.1414 O.2     
   3 N3             0.1626     1.0502    -0.0757 N.am    
   4 N4             0.2003    -0.3392    -0.0088 N.2     
   5 N5             5.0628     1.7653     2.1535 N.am    
   6 N6             6.0075     2.7939     2.0424 N.2     
   7 C7             2.3345     0.3725    -0.0070 C.3     
   8 C8             3.1835     0.4247     1.2648 C.3     
   9 C9             1.3861    -0.8076     0.0334 C.2     
  10 C10            1.4076     1.5708    -0.0797 C.2     
  11 C11            1.7712    -2.2625     0.1100 C.3     
  12 C12            4.1997     1.5312     1.1452 C.2     
  13 C13            7.7977     4.0612     2.9041 C.2     
  14 C14            9.7499     5.2710     3.7386 C.ar    
  15 C15            8.6614     4.2954     3.9131 C.2     
  16 C16            6.8415     3.0200     3.0166 C.2     
  17 C17            7.8487     4.9059     1.6572 C.3     
  18 C18           10.2037     6.0200     4.8288 C.ar    
  19 C19           10.3393     5.4492     2.4832 C.ar    
  20 C20           11.2241     6.9315     4.6574 C.ar    
  21 C21           11.3588     6.3646     2.3279 C.ar    
  22 C22           11.7988     7.1060     3.4106 C.ar    
  23 H23            2.9713     0.3228    -0.8902 H       
  24 H24            2.5398     0.6138     2.1238 H       
  25 H25            3.6971    -0.5274     1.3981 H       
  26 H26           -0.6518     1.5754    -0.1181 H       
  27 H27            0.8706    -2.8764     0.1243 H       
  28 H28            2.3758    -2.5246    -0.7582 H       
  29 H29            2.3456    -2.4390     1.0194 H       
  30 H30            5.0300     1.2216     2.9561 H       
  31 H31            8.5545     3.7673     4.8491 H       
  32 H32            6.8049     2.4147     3.9103 H       
  33 H33            9.7559     5.8852     5.8023 H       
  34 H34            9.9972     4.8711     1.6375 H       
  35 H35            8.4884     4.4240     0.9178 H       
  36 H36            6.8431     5.0156     1.2512 H       
  37 H37            8.2516     5.8890     1.9005 H       
  38 H38           11.5754     7.5110     5.4983 H       
  39 H39           11.8153     6.5031     1.3590 H       
  40 H40           12.5975     7.8217     3.2826 H       
@<TRIPOS>BOND
   1    1   10 2
   2    2   12 2
   3    3    4 1
   4    3   10 am
   5    3   26 1
   6    4    9 2
   7    5    6 1
   8    5   12 am
   9    5   30 1
  10    6   16 2
  11    7    8 1
  12    7    9 1
  13    7   10 1
  14    7   23 1
  15    8   12 1
  16    8   24 1
  17    8   25 1
  18    9   11 1
  19   11   27 1
  20   11   28 1
  21   11   29 1
  22   13   15 2
  23   13   16 1
  24   13   17 1
  25   14   15 1
  26   14   18 ar
  27   14   19 ar
  28   15   31 1
  29   16   32 1
  30   17   35 1
  31   17   36 1
  32   17   37 1
  33   18   20 ar
  34   18   33 1
  35   19   21 ar
  36   19   34 1
  37   20   22 ar
  38   20   38 1
  39   21   22 ar
  40   21   39 1
  41   22   40 1

#	End of record

#	Name: 16194990
#	Creating user name:	landrgr1
#	Creation time:	28. 01. 2015 13:52

#	Modifying user name:	landrgr1
#	Modification time:	28. 01. 2015 13:52

#	Program:	corina 3.48 0006  22.01.2010

@<TRIPOS>MOLECULE
16194990
  41   42    0    0    0
SMALL
NO_CHARGES


@<TRIPOS>ATOM
   1 S1             0.7415     1.6199     0.4174 S.o2    
   2 O2            -2.7888     4.3883     5.5057 O.3     
   3 O3             0.6888     0.2021     0.3387 O.2     
   4 O4             1.9479     2.3427     0.6210 O.2     
   5 O5            -3.8663     2.4703     5.2049 O.2     
   6 O6            -6.1596     6.7888     7.6172 O.2     
   7 O7            -4.0147     6.2266     4.3111 O.2     
   8 O8            -5.4108     7.4513     5.3121 O.2     
   9 N9             0.0863     2.1912    -0.9920 N.am    
  10 N10           -5.2019     5.1275     8.7425 N.am    
  11 N11           -4.6565     6.4949     5.3110 N.pl3   
  12 C12           -0.3445     2.0863     1.7242 C.ar    
  13 C13           -1.3736     1.2408     2.0993 C.ar    
  14 C14           -0.1610     3.2939     2.3743 C.ar    
  15 C15           -2.0513     2.8192     3.7783 C.ar    
  16 C16           -2.2275     1.5996     3.1214 C.ar    
  17 C17           -1.0069     3.6649     3.3987 C.ar    
  18 C18            0.4356     3.5305    -1.4722 C.3     
  19 C19           -0.8426     1.3574    -1.7588 C.3     
  20 C20           -3.5888     4.6384     6.5708 C.2     
  21 C21           -4.2888     4.1228     8.7946 C.2     
  22 C22           -2.9617     3.2102     4.8737 C.2     
  23 C23           -4.5198     5.6587     6.5248 C.2     
  24 C24           -3.4844     3.8618     7.7417 C.2     
  25 C25           -5.3318     5.8914     7.6419 C.2     
  26 C26           -4.1717     3.2887    10.0443 C.3     
  27 H27           -1.5087     0.2978     1.5904 H       
  28 H28            0.6467     3.9473     2.0792 H       
  29 H29           -3.0307     0.9391     3.4128 H       
  30 H30           -0.8621     4.6074     3.9058 H       
  31 H31            1.3114     3.4680    -2.1181 H       
  32 H32           -0.4015     3.9448    -2.0341 H       
  33 H33            0.6567     4.1752    -0.6215 H       
  34 H34           -1.8622     1.5452    -1.4222 H       
  35 H35           -0.7592     1.6002    -2.8182 H       
  36 H36           -0.5976     0.3062    -1.6067 H       
  37 H37           -2.7632     3.0597     7.7969 H       
  38 H38           -5.7721     5.2945     9.5093 H       
  39 H39           -4.8922     3.6387    10.7836 H       
  40 H40           -4.3748     2.2449     9.8048 H       
  41 H41           -3.1635     3.3792    10.4484 H       
@<TRIPOS>BOND
   1    1    3 2
   2    1    4 2
   3    1    9 am
   4    1   12 1
   5    2   20 1
   6    2   22 1
   7    5   22 2
   8    6   25 2
   9    7   11 2
  10    8   11 2
  11    9   18 1
  12    9   19 1
  13   10   21 1
  14   10   25 am
  15   10   38 1
  16   11   23 1
  17   12   13 ar
  18   12   14 ar
  19   13   16 ar
  20   13   27 1
  21   14   17 ar
  22   14   28 1
  23   15   16 ar
  24   15   17 ar
  25   15   22 1
  26   16   29 1
  27   17   30 1
  28   18   31 1
  29   18   32 1
  30   18   33 1
  31   19   34 1
  32   19   35 1
  33   19   36 1
  34   20   23 2
  35   20   24 1
  36   21   24 2
  37   21   26 1
  38   23   25 1
  39   24   37 1
  40   26   39 1
  41   26   40 1
  42   26   41 1

#	End of record

#	Name: 16194889
#	Creating user name:	landrgr1
#	Creation time:	28. 01. 2015 13:52

#	Modifying user name:	landrgr1
#	Modification time:	28. 01. 2015 13:52

#	Program:	corina 3.48 0006  22.01.2010

@<TRIPOS>MOLECULE
16194889
  47   49    0    0    0
SMALL
NO_CHARGES


@<TRIPOS>ATOM
   1 Br1           -6.6699    -3.9372     1.1135 Br      
   2 S2             0.0770     1.6290    -0.0753 S.3     
   3 S3            -3.8288    -2.5832     0.6245 S.3     
   4 O4             5.2818     2.8330    -0.5924 O.3     
   5 O5             5.8323     0.6418    -0.7630 O.3     
   6 O6            -2.4420     1.0896     0.0668 O.2     
   7 N7            -1.2866    -0.8055    -0.0424 N.am    
   8 N8            -1.0671    -4.9306     2.5820 N.3     
   9 N9             1.0649    -0.6733    -0.2960 N.2     
  10 C10           -1.1740    -2.8471     1.2995 C.3     
  11 C11           -1.3017    -2.2688    -0.1113 C.3     
  12 C12           -1.1897    -4.3753     1.2275 C.3     
  13 C13           -0.0876    -0.1200    -0.1415 C.2     
  14 C14            1.8219     1.4863    -0.2755 C.ar    
  15 C15            2.1452     0.1304    -0.3771 C.ar    
  16 C16           -2.4398    -0.1264     0.1175 C.2     
  17 C17            4.1393     2.0896    -0.5028 C.ar    
  18 C18            4.4775     0.7381    -0.6073 C.ar    
  19 C19            2.8192     2.4568    -0.3384 C.ar    
  20 C20            3.4995    -0.2281    -0.5455 C.ar    
  21 C21           -2.2485    -4.6067     3.3927 C.3     
  22 C22           -0.8406    -6.3813     2.5377 C.3     
  23 C23           -3.6900    -0.8517     0.3522 C.2     
  24 C24            6.3599     1.9128    -0.3408 C.3     
  25 C25           -4.9363    -0.2909     0.3942 C.2     
  26 C26           -5.9354    -1.2039     0.6311 C.2     
  27 C27           -5.5243    -2.4705     0.7786 C.2     
  28 H28           -0.2367    -2.5140     1.7452 H       
  29 H29           -2.0090    -2.5035     1.9100 H       
  30 H30           -2.2389    -2.6019    -0.5570 H       
  31 H31           -0.4666    -2.6124    -0.7218 H       
  32 H32           -0.3547    -4.7189     0.6170 H       
  33 H33           -2.1269    -4.7084     0.7818 H       
  34 H34            2.5580     3.5017    -0.2584 H       
  35 H35            3.7710    -1.2703    -0.6262 H       
  36 H36           -3.1380    -5.0259     2.9223 H       
  37 H37           -2.1316    -5.0296     4.3905 H       
  38 H38           -2.3526    -3.5242     3.4668 H       
  39 H39            0.0788    -6.5890     1.9903 H       
  40 H40           -0.7535    -6.7666     3.5536 H       
  41 H41           -1.6790    -6.8648     2.0364 H       
  42 H42            7.2362     2.1790    -0.9319 H       
  43 H43            6.6053     1.8918     0.7211 H       
  44 H44           -5.1173     0.7647     0.2555 H       
  45 H45           -6.9759    -0.9213     0.6935 H       
  46 Cl46          12.2362     8.5017     9.3905 Cl      
  47 H47           12.2362     9.8717     9.3905 H       
@<TRIPOS>BOND
   1    1   27 1
   2    2   13 1
   3    2   14 1
   4    3   23 1
   5    3   27 1
   6    4   17 1
   7    4   24 1
   8    5   18 1
   9    5   24 1
  10    6   16 2
  11    7   11 1
  12    7   13 1
  13    7   16 am
  14    8   12 1
  15    8   21 1
  16    8   22 1
  17    9   13 2
  18    9   15 1
  19   10   11 1
  20   10   12 1
  21   10   28 1
  22   10   29 1
  23   11   30 1
  24   11   31 1
  25   12   32 1
  26   12   33 1
  27   14   15 ar
  28   14   19 ar
  29   15   20 ar
  30   16   23 1
  31   17   18 ar
  32   17   19 ar
  33   18   20 ar
  34   19   34 1
  35   20   35 1
  36   21   36 1
  37   21   37 1
  38   21   38 1
  39   22   39 1
  40   22   40 1
  41   22   41 1
  42   23   25 2
  43   24   42 1
  44   24   43 1
  45   25   26 1
  46   25   44 1
  47   26   27 2
  48   26   45 1
  49   46   47 1

#	End of record

#	Name: 16194881
#	Creating user name:	landrgr1
#	Creation time:	28. 01. 2015 13:52

#	Modifying user name:	landrgr1
#	Modification time:	28. 01. 2015 13:52

#	Program:	corina 3.48 0006  22.01.2010

@<TRIPOS>MOLECULE
16194881
  42   43    0    0    0
SMALL
NO_CHARGES


@<TRIPOS>ATOM
   1 S1            -0.0225     1.8097     0.0120 S.3     
   2 S2             2.3595     3.8618     0.0003 S.3     
   3 O3            -2.4342    -4.3929     1.2430 O.3     
   4 O4            -2.3441     0.2498     0.0258 O.2     
   5 O5             6.3616     1.9891    -0.0480 O.2     
   6 N6            -1.6400    -1.8540     0.0078 N.am    
   7 N7             5.1790     3.8663    -0.0262 N.am    
   8 N8             2.6837     1.3914    -0.0161 N.2     
   9 N9             3.8514     1.8674    -0.0247 N.2     
  10 C10           -2.9937    -3.8909     0.0097 C.3     
  11 C11           -4.4340    -4.4481    -0.0259 C.3     
  12 C12           -4.3738    -5.7023     0.8744 C.3     
  13 C13           -2.9041    -5.7546     1.3474 C.3     
  14 C14           -3.0144    -2.3611     0.0182 C.3     
  15 C15           -1.4117    -0.5257     0.0127 C.2     
  16 C16            0.0021    -0.0041     0.0020 C.3     
  17 C17            7.6505     3.9662    -0.0489 C.3     
  18 C18            8.8215     2.9816    -0.0655 C.3     
  19 C19            7.7126     4.8536    -1.2937 C.3     
  20 C20            6.3517     3.2020    -0.0410 C.2     
  21 C21            1.6887     2.2294    -0.0021 C.2     
  22 C22            3.9787     3.1600    -0.0190 C.2     
  23 H23           -2.4233    -4.2588    -0.8432 H       
  24 H24           -5.1355    -3.7195     0.3806 H       
  25 H25           -4.7127    -4.7214    -1.0435 H       
  26 H26           -5.0454    -5.5938     1.7260 H       
  27 H27           -4.6227    -6.5958     0.3018 H       
  28 H28           -2.3200    -6.4083     0.6997 H       
  29 H29           -2.8501    -6.0964     2.3811 H       
  30 H30           -3.5246    -2.0095     0.9150 H       
  31 H31           -3.5416    -2.0000    -0.8649 H       
  32 H32           -0.8943    -2.4742    -0.0027 H       
  33 H33            0.5123    -0.3556    -0.8948 H       
  34 H34            0.5293    -0.3651     0.8851 H       
  35 H35            7.7115     4.5883     0.8441 H       
  36 H36            9.7609     3.5344    -0.0712 H       
  37 H37            8.7772     2.3495     0.8213 H       
  38 H38            8.7605     2.3596    -0.9585 H       
  39 H39            6.8784     5.5551    -1.2819 H       
  40 H40            8.6520     5.4064    -1.2994 H       
  41 H41            7.6516     4.2316    -2.1867 H       
  42 H42            5.1711     4.8362    -0.0206 H       
@<TRIPOS>BOND
   1    1   16 1
   2    1   21 1
   3    2   21 1
   4    2   22 1
   5    3   10 1
   6    3   13 1
   7    4   15 2
   8    5   20 2
   9    6   14 1
  10    6   15 am
  11    6   32 1
  12    7   20 am
  13    7   22 1
  14    7   42 1
  15    8    9 1
  16    8   21 2
  17    9   22 2
  18   10   11 1
  19   10   14 1
  20   10   23 1
  21   11   12 1
  22   11   24 1
  23   11   25 1
  24   12   13 1
  25   12   26 1
  26   12   27 1
  27   13   28 1
  28   13   29 1
  29   14   30 1
  30   14   31 1
  31   15   16 1
  32   16   33 1
  33   16   34 1
  34   17   18 1
  35   17   19 1
  36   17   20 1
  37   17   35 1
  38   18   36 1
  39   18   37 1
  40   18   38 1
  41   19   39 1
  42   19   40 1
  43   19   41 1

#	End of record

#	Name: 16194838
#	Creating user name:	landrgr1
#	Creation time:	28. 01. 2015 13:52

#	Modifying user name:	landrgr1
#	Modification time:	28. 01. 2015 13:52

#	Program:	corina 3.48 0006  22.01.2010

@<TRIPOS>MOLECULE
16194838
  45   47    0    0    0
SMALL
NO_CHARGES


@<TRIPOS>ATOM
   1 Br1            0.0000     0.0000     0.0000 Br      
   2 S2            12.9081    12.2334     7.0211 S.3     
   3 S3            15.1994     8.4813     9.3803 S.3     
   4 O4            13.8482     7.6440     5.6650 O.3     
   5 N5            13.9977     9.7392     6.7976 N.pl3   
   6 N6            11.8391     9.7052     7.3974 N.pl3   
   7 C7            13.6713     8.3046     6.9197 C.3     
   8 C8            12.1910     8.2823     7.3344 C.3     
   9 C9            12.9474    10.4593     7.0662 C.cat   
  10 C10           15.3382    10.2115     6.4327 C.3     
  11 C11           15.3104    11.6419     5.9108 C.3     
  12 C12           14.5270     7.6585     7.9787 C.2     
  13 C13           14.6905    12.5578     6.9732 C.3     
  14 C14           10.5826    10.2160     7.7387 C.ar    
  15 C15           14.8910     6.3754     7.9960 C.2     
  16 C16            9.4950    10.0058     6.9010 C.ar    
  17 C17           10.4187    10.9296     8.9189 C.ar    
  18 C18           15.6815     6.0078     9.0712 C.2     
  19 C19           15.9595     6.9924     9.9271 C.2     
  20 C20            8.2555    10.5112     7.2412 C.ar    
  21 C21            9.1765    11.4323     9.2533 C.ar    
  22 C22            8.0968    11.2261     8.4142 C.ar    
  23 C23            6.7430    11.7765     8.7820 C.3     
  24 C24            5.9792    10.7410     9.6098 C.3     
  25 H25           12.0720     7.8129     8.3109 H       
  26 H26           11.5889     7.7699     6.5840 H       
  27 H27           15.9820    10.1664     7.3111 H       
  28 H28           15.7467     9.5595     5.6607 H       
  29 H29           16.3272    11.9704     5.6957 H       
  30 H30           14.7132    11.6852     5.0000 H       
  31 H31           14.8683    13.6005     6.7098 H       
  32 H32           15.1304    12.3429     7.9470 H       
  33 H33           13.6477     6.6982     5.6868 H       
  34 H34           14.5914     5.6762     7.2293 H       
  35 H35            9.6184     9.4481     5.9845 H       
  36 H36           11.2615    11.0910     9.5746 H       
  37 H37           16.0453     5.0000     9.2070 H       
  38 H38           16.5597     6.8909    10.8191 H       
  39 H39            7.4093    10.3481     6.5903 H       
  40 H40            9.0483    11.9870    10.1710 H       
  41 H41            6.8679    12.6882     9.3662 H       
  42 H42            6.1830    12.0006     7.8741 H       
  43 H43            5.0000    11.1391     9.8758 H       
  44 H44            5.8543     9.8293     9.0257 H       
  45 H45            6.5392    10.5170    10.5177 H       
@<TRIPOS>BOND
   1    2    9 1
   2    2   13 1
   3    3   12 1
   4    3   19 1
   5    4    7 1
   6    4   33 1
   7    5    7 1
   8    5    9 ar
   9    5   10 1
  10    6    8 1
  11    6    9 ar
  12    6   14 1
  13    7    8 1
  14    7   12 1
  15    8   25 1
  16    8   26 1
  17   10   11 1
  18   10   27 1
  19   10   28 1
  20   11   13 1
  21   11   29 1
  22   11   30 1
  23   12   15 2
  24   13   31 1
  25   13   32 1
  26   14   16 ar
  27   14   17 ar
  28   15   18 1
  29   15   34 1
  30   16   20 ar
  31   16   35 1
  32   17   21 ar
  33   17   36 1
  34   18   19 2
  35   18   37 1
  36   19   38 1
  37   20   22 ar
  38   20   39 1
  39   21   22 ar
  40   21   40 1
  41   22   23 1
  42   23   24 1
  43   23   41 1
  44   23   42 1
  45   24   43 1
  46   24   44 1
  47   24   45 1

#	End of record

#	Name: 16194734
#	Creating user name:	landrgr1
#	Creation time:	28. 01. 2015 13:52

#	Modifying user name:	landrgr1
#	Modification time:	28. 01. 2015 13:52

#	Program:	corina 3.48 0006  22.01.2010

@<TRIPOS>MOLECULE
16194734
  54   55    0    0    0
SMALL
NO_CHARGES


@<TRIPOS>ATOM
   1 Cl1            0.0000     0.0000     0.0000 Cl      
   2 H2             0.0000     1.3700     0.0000 H       
   3 S3            11.3065    13.8397     6.4995 S.3     
   4 O4             8.9182    12.8732     6.4210 O.2     
   5 O5             7.1858    11.9495     8.6218 O.3     
   6 N6            10.3780    11.2114     6.6230 N.am    
   7 N7            11.0156     7.9130     8.2528 N.3     
   8 N8            12.6867    11.7413     6.6370 N.2     
   9 C9            10.6174     9.7684     6.7048 C.3     
  10 C10           10.7755     9.3599     8.1708 C.3     
  11 C11           11.4474    12.0899     6.5959 C.2     
  12 C12           13.0614    13.9959     6.5228 C.ar    
  13 C13           13.6175    12.7151     6.6015 C.ar    
  14 C14           13.8829    15.1192     6.4769 C.ar    
  15 C15            9.1166    11.6835     6.5741 C.2     
  16 C16           15.0229    12.5952     6.6338 C.ar    
  17 C17           15.8170    13.7132     6.5890 C.ar    
  18 C18           15.2526    14.9776     6.5088 C.ar    
  19 C19            7.9768    10.7569     6.7065 C.ar    
  20 C20           12.3075     7.5587     7.6501 C.3     
  21 C21           10.9369     7.4443     9.6428 C.3     
  22 C22           13.2716    16.4940     6.3916 C.3     
  23 C23           17.3164    13.5659     6.6254 C.3     
  24 C24            7.0440    10.9295     7.7388 C.ar    
  25 C25            7.8171     9.7056     5.8005 C.ar    
  26 C26            5.9760    10.0526     7.8533 C.ar    
  27 C27            6.7496     8.8436     5.9295 C.ar    
  28 C28            5.8334     9.0141     6.9542 C.ar    
  29 C29            6.1966    12.0625     9.6469 C.3     
  30 H30            9.7734     9.2347     6.2679 H       
  31 H31           11.5270     9.5194     6.1582 H       
  32 H32            9.8659     9.6089     8.7174 H       
  33 H33           11.6195     9.8936     8.6077 H       
  34 H34           15.4766    11.6170     6.6945 H       
  35 H35           15.8869    15.8510     6.4731 H       
  36 H36           13.1087     8.0764     8.1776 H       
  37 H37           12.4600     6.4820     7.7243 H       
  38 H38           12.3125     7.8549     6.6011 H       
  39 H39            9.9455     7.6573    10.0426 H       
  40 H40           11.1185     6.3700     9.6748 H       
  41 H41           11.6885     7.9578    10.2425 H       
  42 H42           13.1057    16.8809     7.3971 H       
  43 H43           13.9468    17.1591     5.8532 H       
  44 H44           12.3202    16.4364     5.8629 H       
  45 H45           17.6974    13.4755     5.6082 H       
  46 H46           17.7561    14.4423     7.1015 H       
  47 H47           17.5801    12.6735     7.1929 H       
  48 H48            8.5291     9.5688     5.0000 H       
  49 H49            5.2549    10.1817     8.6469 H       
  50 H50            6.6270     8.0311     5.2286 H       
  51 H51            5.0000     8.3336     7.0479 H       
  52 H52            5.2162    12.2033     9.1918 H       
  53 H53            6.1909    11.1533    10.2481 H       
  54 H54            6.4281    12.9170    10.2827 H       
@<TRIPOS>BOND
   1    1    2 1
   2    3   11 1
   3    3   12 1
   4    4   15 2
   5    5   24 1
   6    5   29 1
   7    6    9 1
   8    6   11 1
   9    6   15 am
  10    7   10 1
  11    7   20 1
  12    7   21 1
  13    8   11 2
  14    8   13 1
  15    9   10 1
  16    9   30 1
  17    9   31 1
  18   10   32 1
  19   10   33 1
  20   12   13 ar
  21   12   14 ar
  22   13   16 ar
  23   14   18 ar
  24   14   22 1
  25   15   19 1
  26   16   17 ar
  27   16   34 1
  28   17   18 ar
  29   17   23 1
  30   18   35 1
  31   19   24 ar
  32   19   25 ar
  33   20   36 1
  34   20   37 1
  35   20   38 1
  36   21   39 1
  37   21   40 1
  38   21   41 1
  39   22   42 1
  40   22   43 1
  41   22   44 1
  42   23   45 1
  43   23   46 1
  44   23   47 1
  45   24   26 ar
  46   25   27 ar
  47   25   48 1
  48   26   28 ar
  49   26   49 1
  50   27   28 ar
  51   27   50 1
  52   28   51 1
  53   29   52 1
  54   29   53 1
  55   29   54 1

#	End of record

#	Name: 16194692
#	Creating user name:	landrgr1
#	Creation time:	28. 01. 2015 13:52

#	Modifying user name:	landrgr1
#	Modification time:	28. 01. 2015 13:52

#	Program:	corina 3.48 0006  22.01.2010

@<TRIPOS>MOLECULE
16194692
  53   55    0    0    0
SMALL
NO_CHARGES


@<TRIPOS>ATOM
   1 Br1           -7.0356    -3.2110     0.4225 Br      
   2 S2             1.2028    -0.3770    -0.9803 S.3     
   3 S3            -3.8779    -2.8984     0.1479 S.3     
   4 O4             6.4410    -0.5733    -0.8279 O.3     
   5 O5             6.2558    -3.2536    -0.0956 O.3     
   6 O6            -1.3581    -0.1570    -1.2110 O.2     
   7 N7            -1.7265    -5.0590     1.7176 N.3     
   8 N8            -0.8522    -2.2090    -0.5242 N.am    
   9 N9             1.4345    -2.7925    -0.3195 N.2     
  10 C10           -1.4240    -3.6684     1.3532 C.3     
  11 C11           -1.3189    -3.5514    -0.1687 C.3     
  12 C12           -1.4318    -5.3077     3.1351 C.3     
  13 C13           -3.1218    -5.3939     1.4033 C.3     
  14 C14            0.5048    -1.9375    -0.5703 C.2     
  15 C15            2.8252    -1.0318    -0.7703 C.ar    
  16 C16            2.7148    -2.3768    -0.4070 C.ar    
  17 C17           -1.3900    -6.8157     3.3903 C.3     
  18 C18           -4.0557    -4.5957     2.3153 C.3     
  19 C19           -1.7436    -1.2383    -0.8064 C.2     
  20 C20            5.2266    -1.1735    -0.6858 C.ar    
  21 C21            5.1320    -2.5159    -0.3212 C.ar    
  22 C22            4.0777    -0.4386    -0.9070 C.ar    
  23 C23            3.8977    -3.1121    -0.1837 C.ar    
  24 C24            7.5617    -1.2400    -0.2372 C.3     
  25 C25            7.4848    -2.7275    -0.6070 C.3     
  26 C26           -3.1757    -1.4845    -0.6262 C.2     
  27 C27           -4.1809    -0.6520    -1.0336 C.2     
  28 C28           -5.4351    -1.1289    -0.7376 C.2     
  29 C29           -5.4593    -2.3119    -0.1092 C.2     
  30 H30           -2.2200    -3.0169     1.7136 H       
  31 H31           -0.4782    -3.3715     1.8065 H       
  32 H32           -2.2980    -3.7256    -0.6149 H       
  33 H33           -0.6123    -4.2925    -0.5422 H       
  34 H34           -0.4663    -4.8695     3.3878 H       
  35 H35           -2.2085    -4.8561     3.7523 H       
  36 H36           -3.3298    -5.1448     0.3628 H       
  37 H37           -3.2839    -6.4602     1.5610 H       
  38 H38           -0.5595    -7.2548     2.8376 H       
  39 H39           -1.2552    -7.0002     4.4561 H       
  40 H40           -2.3256    -7.2663     3.0591 H       
  41 H41           -5.0892    -4.8760     2.1118 H       
  42 H42           -3.8189    -4.8124     3.3570 H       
  43 H43           -3.9244    -3.5302     2.1268 H       
  44 H44            4.1514     0.6017    -1.1879 H       
  45 H45            3.8351    -4.1528     0.0982 H       
  46 H46            8.4880    -0.8130    -0.6215 H       
  47 H47            7.5265    -1.1283     0.8465 H       
  48 H48            8.3257    -3.2605    -0.1632 H       
  49 H49            7.5094    -2.8385    -1.6911 H       
  50 H50           -4.0065     0.2873    -1.5372 H       
  51 H51           -6.3353    -0.5898    -0.9932 H       
  52 Cl52          13.4880     5.6017     9.4561 Cl      
  53 H53           13.4880     6.9717     9.4561 H       
@<TRIPOS>BOND
   1    1   29 1
   2    2   14 1
   3    2   15 1
   4    3   26 1
   5    3   29 1
   6    4   20 1
   7    4   24 1
   8    5   21 1
   9    5   25 1
  10    6   19 2
  11    7   10 1
  12    7   12 1
  13    7   13 1
  14    8   11 1
  15    8   14 1
  16    8   19 am
  17    9   14 2
  18    9   16 1
  19   10   11 1
  20   10   30 1
  21   10   31 1
  22   11   32 1
  23   11   33 1
  24   12   17 1
  25   12   34 1
  26   12   35 1
  27   13   18 1
  28   13   36 1
  29   13   37 1
  30   15   16 ar
  31   15   22 ar
  32   16   23 ar
  33   17   38 1
  34   17   39 1
  35   17   40 1
  36   18   41 1
  37   18   42 1
  38   18   43 1
  39   19   26 1
  40   20   21 ar
  41   20   22 ar
  42   21   23 ar
  43   22   44 1
  44   23   45 1
  45   24   25 1
  46   24   46 1
  47   24   47 1
  48   25   48 1
  49   25   49 1
  50   26   27 2
  51   27   28 1
  52   27   50 1
  53   28   29 2
  54   28   51 1
  55   52   53 1

#	End of record

#	Name: 16194667
#	Creating user name:	landrgr1
#	Creation time:	28. 01. 2015 13:52

#	Modifying user name:	landrgr1
#	Modification time:	28. 01. 2015 13:52

#	Program:	corina 3.48 0006  22.01.2010

@<TRIPOS>MOLECULE
16194667
  56   57    0    0    0
SMALL
NO_CHARGES


@<TRIPOS>ATOM
   1 Cl1            0.0000     0.0000     0.0000 Cl      
   2 H2             0.0000     1.3700     0.0000 H       
   3 S3            11.7375    14.3238     7.8973 S.3     
   4 O4            11.8375    10.0241     8.8723 O.2     
   5 O5            15.8188    11.5217     8.1769 O.3     
   6 O6             6.1105     6.3700    10.3981 O.2     
   7 O7             5.0000     7.6634     9.1552 O.2     
   8 N8             7.6957    13.6408     7.0579 N.3     
   9 N9            10.6165    11.8474     8.5305 N.am    
  10 N10           12.9516    12.1539     8.2731 N.2     
  11 N11            6.0532     7.3548     9.6836 N.pl3   
  12 C12            8.9479    12.8726     7.0656 C.3     
  13 C13            9.2919    12.4725     8.5017 C.3     
  14 C14            7.5426    14.3854     5.8009 C.3     
  15 C15            6.5399    12.7658     7.2956 C.3     
  16 C16           11.7462    12.6063     8.2727 C.2     
  17 C17           10.7360    10.5339     8.8079 C.2     
  18 C18            6.4383    15.4323     5.9596 C.3     
  19 C19            6.3810    11.8000     6.1197 C.3     
  20 C20           13.9500    13.0185     8.0021 C.ar    
  21 C21           13.4938    14.3156     7.7554 C.ar    
  22 C22            9.5277     9.7135     9.0337 C.ar    
  23 C23           15.3421    12.7728     7.9415 C.ar    
  24 C24           14.3951    15.3365     7.4581 C.ar    
  25 C25            9.5899     8.5842     9.8521 C.ar    
  26 C26            8.3176    10.0677     8.4343 C.ar    
  27 C27           16.2164    13.7943     7.6458 C.ar    
  28 C28           15.7462    15.0764     7.4041 C.ar    
  29 C29            8.4581     7.8230    10.0591 C.ar    
  30 C30            7.1934     9.2977     8.6497 C.ar    
  31 C31            7.2634     8.1764     9.4574 C.ar    
  32 C32           17.2343    11.3416     8.1000 C.3     
  33 H33            8.8278    11.9760     6.4575 H       
  34 H34            9.7519    13.4843     6.6564 H       
  35 H35            8.5485    11.7655     8.8700 H       
  36 H36            9.2949    13.3595     9.1353 H       
  37 H37            8.4816    14.8819     5.5561 H       
  38 H38            7.2769    13.6955     5.0000 H       
  39 H39            6.6962    12.1985     8.2132 H       
  40 H40            5.6391    13.3720     7.3922 H       
  41 H41            6.2684    15.9289     5.0043 H       
  42 H42            5.5191    14.9446     6.2841 H       
  43 H43            6.7406    16.1695     6.7035 H       
  44 H44            6.2443    12.3676     5.1992 H       
  45 H45            7.2737    11.1804     6.0352 H       
  46 H46            5.5117    11.1640     6.2868 H       
  47 H47           14.0321    16.3359     7.2690 H       
  48 H48           10.5220     8.3068    10.3218 H       
  49 H49            8.2617    10.9426     7.8037 H       
  50 H50           17.2771    13.5958     7.6025 H       
  51 H51           16.4401    15.8711     7.1729 H       
  52 H52            8.5049     6.9491    10.6919 H       
  53 H53            6.2567     9.5706     8.1866 H       
  54 H54           17.4800    10.3003     8.3084 H       
  55 H55           17.5801    11.6035     7.1000 H       
  56 H56           17.7226    11.9838     8.8330 H       
@<TRIPOS>BOND
   1    1    2 1
   2    3   16 1
   3    3   21 1
   4    4   17 2
   5    5   23 1
   6    5   32 1
   7    6   11 2
   8    7   11 2
   9    8   12 1
  10    8   14 1
  11    8   15 1
  12    9   13 1
  13    9   16 1
  14    9   17 am
  15   10   16 2
  16   10   20 1
  17   11   31 1
  18   12   13 1
  19   12   33 1
  20   12   34 1
  21   13   35 1
  22   13   36 1
  23   14   18 1
  24   14   37 1
  25   14   38 1
  26   15   19 1
  27   15   39 1
  28   15   40 1
  29   17   22 1
  30   18   41 1
  31   18   42 1
  32   18   43 1
  33   19   44 1
  34   19   45 1
  35   19   46 1
  36   20   21 ar
  37   20   23 ar
  38   21   24 ar
  39   22   25 ar
  40   22   26 ar
  41   23   27 ar
  42   24   28 ar
  43   24   47 1
  44   25   29 ar
  45   25   48 1
  46   26   30 ar
  47   26   49 1
  48   27   28 ar
  49   27   50 1
  50   28   51 1
  51   29   31 ar
  52   29   52 1
  53   30   31 ar
  54   30   53 1
  55   32   54 1
  56   32   55 1
  57   32   56 1

#	End of record

#	Name: 16194664
#	Creating user name:	landrgr1
#	Creation time:	28. 01. 2015 13:52

#	Modifying user name:	landrgr1
#	Modification time:	28. 01. 2015 13:52

#	Program:	corina 3.48 0006  22.01.2010

@<TRIPOS>MOLECULE
16194664
  43   45    0    0    0
SMALL
NO_CHARGES


@<TRIPOS>ATOM
   1 O1            -2.7058    -4.7817    -0.3920 O.2     
   2 O2             0.8756    -8.8570    -1.9878 O.2     
   3 O3            -0.6334     1.0908     0.3721 O.3     
   4 N4            -0.4872    -4.4174    -0.0906 N.am    
   5 N5             0.6799    -6.6450    -2.0360 N.am    
   6 N6             1.2065    -7.8719    -3.9509 N.am    
   7 C7             0.3675    -6.5979    -0.6055 C.3     
   8 C8             0.7362    -5.2235    -0.0041 C.3     
   9 C9            -1.1601    -6.6451    -0.3708 C.3     
  10 C10           -1.5683    -5.1906    -0.2907 C.2     
  11 C11           -0.5242    -3.0216     0.0264 C.ar    
  12 C12            0.9191    -7.8285    -2.6349 C.2     
  13 C13            0.6280    -2.3217     0.3586 C.ar    
  14 C14           -1.7116    -2.3373    -0.1959 C.ar    
  15 C15            0.5909    -0.9462     0.4737 C.ar    
  16 C16           -1.7476    -0.9618    -0.0795 C.ar    
  17 C17           -0.5974    -0.2636     0.2581 C.ar    
  18 C18            1.3609    -9.1057    -4.5931 C.ar    
  19 C19            0.9335    -9.2658    -5.9046 C.ar    
  20 C20            1.9470   -10.1709    -3.9221 C.ar    
  21 C21            1.0872   -10.4847    -6.5356 C.ar    
  22 C22            2.0979   -11.3873    -4.5586 C.ar    
  23 C23            1.6656   -11.5452    -5.8626 C.ar    
  24 C24           -1.8903     1.7285     0.1363 C.3     
  25 H25            0.8699    -7.4046    -0.0717 H       
  26 H26            1.5349    -4.7603    -0.5835 H       
  27 H27            1.0407    -5.3365     1.0364 H       
  28 H28           -1.6594    -7.1360    -1.2062 H       
  29 H29           -1.3868    -7.1570     0.5644 H       
  30 H30            0.7146    -5.8245    -2.5522 H       
  31 H31            1.5530    -2.8531     0.5276 H       
  32 H32           -2.6071    -2.8807    -0.4590 H       
  33 H33            1.4870    -0.4016     0.7321 H       
  34 H34           -2.6714    -0.4294    -0.2516 H       
  35 H35            1.3064    -7.0480    -4.4530 H       
  36 H36            0.4810    -8.4381    -6.4305 H       
  37 H37            2.2848   -10.0482    -2.9036 H       
  38 H38            0.7550   -10.6098    -7.5556 H       
  39 H39            2.5536   -12.2161    -4.0372 H       
  40 H40            1.7844   -12.4975    -6.3581 H       
  41 H41           -2.6264     1.3550     0.8482 H       
  42 H42           -1.7798     2.8059     0.2595 H       
  43 H43           -2.2233     1.5111    -0.8785 H       
@<TRIPOS>BOND
   1    1   10 2
   2    2   12 2
   3    3   17 1
   4    3   24 1
   5    4    8 1
   6    4   10 am
   7    4   11 1
   8    5    7 1
   9    5   12 am
  10    5   30 1
  11    6   12 am
  12    6   18 1
  13    6   35 1
  14    7    8 1
  15    7    9 1
  16    7   25 1
  17    8   26 1
  18    8   27 1
  19    9   10 1
  20    9   28 1
  21    9   29 1
  22   11   13 ar
  23   11   14 ar
  24   13   15 ar
  25   13   31 1
  26   14   16 ar
  27   14   32 1
  28   15   17 ar
  29   15   33 1
  30   16   17 ar
  31   16   34 1
  32   18   19 ar
  33   18   20 ar
  34   19   21 ar
  35   19   36 1
  36   20   22 ar
  37   20   37 1
  38   21   23 ar
  39   21   38 1
  40   22   23 ar
  41   22   39 1
  42   23   40 1
  43   24   41 1
  44   24   42 1
  45   24   43 1

#	End of record

#	Name: 16194644
#	Creating user name:	landrgr1
#	Creation time:	28. 01. 2015 13:52

#	Modifying user name:	landrgr1
#	Modification time:	28. 01. 2015 13:52

#	Program:	corina 3.48 0006  22.01.2010

@<TRIPOS>MOLECULE
16194644
  54   57    0    0    0
SMALL
NO_CHARGES


@<TRIPOS>ATOM
   1 S1             0.0538     1.2631     0.0643 S.o2    
   2 O2            -1.2437     7.3888    -7.2068 O.3     
   3 O3             0.1693    -0.1508     0.1476 O.2     
   4 O4             1.2079     2.0906     0.0128 O.2     
   5 O5            -2.5414     4.5957    -3.5992 O.2     
   6 O6             0.5619     1.1930     2.8139 O.2     
   7 N7            -1.2240     2.3302    -3.4989 N.pl3   
   8 N8            -1.9562     5.2471    -5.6377 N.am    
   9 N9            -1.2334     2.0822     3.7671 N.am    
  10 C10           -0.7509     1.5432    -1.4780 C.2     
  11 C11           -2.2390     1.4421    -3.2215 C.ar    
  12 C12           -1.9872     0.9101    -1.9434 C.ar    
  13 C13           -1.1014     3.1093    -4.7334 C.3     
  14 C14           -0.3500     2.3810    -2.4472 C.2     
  15 C15           -2.7466     6.4849    -5.5452 C.3     
  16 C16           -1.2081     4.9954    -6.8795 C.3     
  17 C17           -1.9182     4.3702    -4.6149 C.2     
  18 C18           -1.8487     7.6626    -5.9408 C.3     
  19 C19           -0.3851     6.2457    -7.2101 C.3     
  20 C20           -1.1172     1.8803     1.3045 C.3     
  21 C21           -3.3633     1.0227    -3.9247 C.ar    
  22 C22           -2.8609    -0.0311    -1.3963 C.ar    
  23 C23           -4.2142     0.0950    -3.3644 C.ar    
  24 C24           -3.9607    -0.4277    -2.1039 C.ar    
  25 C25           -0.5351     1.6934     2.6819 C.2     
  26 C26           -0.7368     1.8214     5.0490 C.ar    
  27 C27            0.6306     1.8647     5.2877 C.ar    
  28 C28           -1.6107     1.5241     6.0866 C.ar    
  29 C29            1.1175     1.6068     6.5541 C.ar    
  30 C30           -1.1173     1.2671     7.3507 C.ar    
  31 C31            0.2451     1.3055     7.5838 C.ar    
  32 H32           -0.0553     3.3681    -4.8974 H       
  33 H33           -1.4654     2.5182    -5.5738 H       
  34 H34            0.5351     2.9985    -2.4060 H       
  35 H35           -3.5980     6.4283    -6.2235 H       
  36 H36           -3.0996     6.6196    -4.5227 H       
  37 H37           -0.5422     4.1437    -6.7407 H       
  38 H38           -1.9046     4.7888    -7.6922 H       
  39 H39           -1.0722     7.7975    -5.1878 H       
  40 H40           -2.4487     8.5698    -6.0126 H       
  41 H41            0.0679     6.1335    -8.1952 H       
  42 H42            0.3967     6.3754    -6.4617 H       
  43 H43           -1.3059     2.9396     1.1305 H       
  44 H44           -2.0532     1.3270     1.2275 H       
  45 H45           -3.5688     1.4230    -4.9064 H       
  46 H46           -2.6681    -0.4447    -0.4174 H       
  47 H47           -5.0869    -0.2292    -3.9119 H       
  48 H48           -4.6362    -1.1562    -1.6803 H       
  49 H49           -2.0802     2.5429     3.6595 H       
  50 H50            1.3125     2.0996     4.4838 H       
  51 H51           -2.6749     1.4943     5.9052 H       
  52 H52            2.1809     1.6400     6.7403 H       
  53 H53           -1.7965     1.0362     8.1581 H       
  54 H54            0.6284     1.1041     8.5733 H       
@<TRIPOS>BOND
   1    1    3 2
   2    1    4 2
   3    1   10 1
   4    1   20 1
   5    2   18 1
   6    2   19 1
   7    5   17 2
   8    6   25 2
   9    7   11 1
  10    7   13 1
  11    7   14 1
  12    8   15 1
  13    8   16 1
  14    8   17 am
  15    9   25 am
  16    9   26 1
  17    9   49 1
  18   10   12 1
  19   10   14 2
  20   11   12 ar
  21   11   21 ar
  22   12   22 ar
  23   13   17 1
  24   13   32 1
  25   13   33 1
  26   14   34 1
  27   15   18 1
  28   15   35 1
  29   15   36 1
  30   16   19 1
  31   16   37 1
  32   16   38 1
  33   18   39 1
  34   18   40 1
  35   19   41 1
  36   19   42 1
  37   20   25 1
  38   20   43 1
  39   20   44 1
  40   21   23 ar
  41   21   45 1
  42   22   24 ar
  43   22   46 1
  44   23   24 ar
  45   23   47 1
  46   24   48 1
  47   26   27 ar
  48   26   28 ar
  49   27   29 ar
  50   27   50 1
  51   28   30 ar
  52   28   51 1
  53   29   31 ar
  54   29   52 1
  55   30   31 ar
  56   30   53 1
  57   31   54 1

#	End of record

#	Name: 16194622
#	Creating user name:	landrgr1
#	Creation time:	28. 01. 2015 13:52

#	Modifying user name:	landrgr1
#	Modification time:	28. 01. 2015 13:52

#	Program:	corina 3.48 0006  22.01.2010

@<TRIPOS>MOLECULE
16194622
  59   61    0    0    0
SMALL
NO_CHARGES


@<TRIPOS>ATOM
   1 S1             5.2078    -2.6169     3.1511 S.2     
   2 O2            -0.4389     0.8320     1.8781 O.3     
   3 O3            -2.4807    -0.9145     2.4848 O.3     
   4 O4             5.6083     0.6825    -0.2891 O.3     
   5 O5             6.5835    -8.5723    -1.9145 O.3     
   6 O6             8.1579    -7.9202    -0.4923 O.2     
   7 N7             3.2761    -3.1824     1.4180 N.am    
   8 N8             4.1218    -1.0080     1.3382 N.am    
   9 C9             2.3496    -2.8620     0.3294 C.3     
  10 C10            3.2797    -4.5243     2.0058 C.3     
  11 C11            1.0591    -2.3389     0.9056 C.ar    
  12 C12            4.2538    -5.3977     1.2578 C.ar    
  13 C13            4.1251    -2.2425     1.8789 C.2     
  14 C14            0.9025    -0.9836     1.1283 C.ar    
  15 C15            0.0323    -3.2149     1.2050 C.ar    
  16 C16            5.5736    -5.4651     1.6679 C.ar    
  17 C17            3.8229    -6.1329     0.1677 C.ar    
  18 C18           -0.2834    -0.5010     1.6580 C.ar    
  19 C19           -1.1535    -2.7400     1.7337 C.ar    
  20 C20           -1.3148    -1.3833     1.9647 C.ar    
  21 C21            4.9210     0.0012     1.8912 C.ar    
  22 C22            6.4705    -6.2626     0.9878 C.ar    
  23 C23            4.7090    -6.9351    -0.5209 C.ar    
  24 C24            6.0437    -7.0030    -0.1164 C.ar    
  25 C25            5.6603     0.8408     1.0605 C.ar    
  26 C26            4.9740     0.1708     3.2666 C.ar    
  27 C27            6.4486     1.8366     1.6128 C.ar    
  28 C28            6.9985    -7.8592    -0.8496 C.2     
  29 C29            5.7633     1.1672     3.8100 C.ar    
  30 C30            6.5009     1.9961     2.9856 C.ar    
  31 C31            0.6619     1.6781     1.5399 C.3     
  32 C32           -3.4953    -1.8779     2.7752 C.3     
  33 C33            6.3924     1.5795    -1.0782 C.3     
  34 H34            2.7941    -2.1031    -0.3145 H       
  35 H35            2.1492    -3.7610    -0.2536 H       
  36 H36            3.5774    -4.4617     3.0525 H       
  37 H37            2.2801    -4.9536     1.9374 H       
  38 H38            1.7047    -0.3009     0.8897 H       
  39 H39            0.1566    -4.2725     1.0251 H       
  40 H40            5.9023    -4.8919     2.5221 H       
  41 H41            2.7905    -6.0788    -0.1446 H       
  42 H42            3.5661    -0.8182     0.5661 H       
  43 H43           -1.9542    -3.4264     1.9664 H       
  44 H44            7.5005    -6.3138     1.3084 H       
  45 H45            4.3714    -7.5084    -1.3717 H       
  46 H46            4.3984    -0.4752     3.9130 H       
  47 H47            7.0230     2.4886     0.9713 H       
  48 H48            5.8038     1.2983     4.8812 H       
  49 H49            7.1162     2.7732     3.4144 H       
  50 H50            1.5368     1.3855     2.1205 H       
  51 H51            0.8820     1.5805     0.4769 H       
  52 H52            0.4066     2.7137     1.7645 H       
  53 H53           -3.7723    -2.4010     1.8599 H       
  54 H54           -3.1173    -2.5954     3.5035 H       
  55 H55           -4.3702    -1.3722     3.1837 H       
  56 H56            6.2603     1.3446    -2.1343 H       
  57 H57            6.0710     2.6041    -0.8908 H       
  58 H58            7.4439     1.4740    -0.8112 H       
  59 H59            7.2446    -9.1180    -2.3620 H       
@<TRIPOS>BOND
   1    1   13 2
   2    2   18 1
   3    2   31 1
   4    3   20 1
   5    3   32 1
   6    4   25 1
   7    4   33 1
   8    5   28 1
   9    5   59 1
  10    6   28 2
  11    7    9 1
  12    7   10 1
  13    7   13 am
  14    8   13 am
  15    8   21 1
  16    8   42 1
  17    9   11 1
  18    9   34 1
  19    9   35 1
  20   10   12 1
  21   10   36 1
  22   10   37 1
  23   11   14 ar
  24   11   15 ar
  25   12   16 ar
  26   12   17 ar
  27   14   18 ar
  28   14   38 1
  29   15   19 ar
  30   15   39 1
  31   16   22 ar
  32   16   40 1
  33   17   23 ar
  34   17   41 1
  35   18   20 ar
  36   19   20 ar
  37   19   43 1
  38   21   25 ar
  39   21   26 ar
  40   22   24 ar
  41   22   44 1
  42   23   24 ar
  43   23   45 1
  44   24   28 1
  45   25   27 ar
  46   26   29 ar
  47   26   46 1
  48   27   30 ar
  49   27   47 1
  50   29   30 ar
  51   29   48 1
  52   30   49 1
  53   31   50 1
  54   31   51 1
  55   31   52 1
  56   32   53 1
  57   32   54 1
  58   32   55 1
  59   33   56 1
  60   33   57 1
  61   33   58 1

#	End of record

#	Name: 16194576
#	Creating user name:	landrgr1
#	Creation time:	28. 01. 2015 13:52

#	Modifying user name:	landrgr1
#	Modification time:	28. 01. 2015 13:52

#	Program:	corina 3.48 0006  22.01.2010

@<TRIPOS>MOLECULE
16194576
  49   51    0    0    0
SMALL
NO_CHARGES


@<TRIPOS>ATOM
   1 S1            -5.4304    -2.1982    -3.9733 S.2     
   2 O2            -0.9424     2.7145     0.2883 O.3     
   3 O3            -9.8384    -0.6096    -2.8648 O.3     
   4 N4            -0.0919    -2.7127     0.2364 N.pl3   
   5 N5            -5.6731    -2.2400    -1.3287 N.am    
   6 N6            -7.6656    -2.3098    -2.5429 N.am    
   7 C7            -2.2282    -2.1124     0.1951 C.2     
   8 C8            -1.4079    -0.8992     0.2295 C.ar    
   9 C9            -3.7335    -2.1757     0.1597 C.3     
  10 C10           -1.3852    -3.1571     0.2009 C.2     
  11 C11           -0.0708    -1.3340     0.2546 C.ar    
  12 C12           -4.2098    -2.1785    -1.2943 C.3     
  13 C13           -1.6980     0.4670     0.2410 C.ar    
  14 C14            0.9548    -0.3950     0.2907 C.ar    
  15 C15           -1.8019    -4.6051     0.1722 C.3     
  16 C16           -0.6659     1.3830     0.2774 C.ar    
  17 C17            0.6572     0.9492     0.3017 C.ar    
  18 C18           -6.3194    -2.2532    -2.5113 C.2     
  19 C19           -8.3414    -2.2325    -3.7678 C.ar    
  20 C20            0.1721     3.6081     0.3263 C.3     
  21 C21           -9.4295    -1.3741    -3.9124 C.ar    
  22 C22           -7.9257    -3.0058    -4.8413 C.ar    
  23 C23          -10.0938    -1.3018    -5.1255 C.ar    
  24 C24           -8.5942    -2.9278    -6.0489 C.ar    
  25 C25           -9.6770    -2.0803    -6.1899 C.ar    
  26 C26          -10.9607     0.2469    -3.0858 C.3     
  27 H27           -4.0706    -3.0867     0.6542 H       
  28 H28           -4.1458    -1.3084     0.6754 H       
  29 H29            0.6931    -3.2824     0.2507 H       
  30 H30           -3.7974    -3.0457    -1.8100 H       
  31 H31           -3.8727    -1.2675    -1.7888 H       
  32 H32           -2.7237     0.8047     0.2223 H       
  33 H33            1.9844    -0.7204     0.3105 H       
  34 H34           -1.9262    -4.9677     1.1926 H       
  35 H35           -2.7454    -4.7011    -0.3650 H       
  36 H36           -1.0354    -5.1939    -0.3317 H       
  37 H37            1.4574     1.6740     0.3297 H       
  38 H38           -6.1768    -2.2712    -0.5003 H       
  39 H39           -8.1666    -2.4041    -1.7177 H       
  40 H40           -0.1873     4.6372     0.3313 H       
  41 H41            0.7558     3.4228     1.2280 H       
  42 H42            0.7979     3.4461    -0.5513 H       
  43 H43           -7.0797    -3.6686    -4.7340 H       
  44 H44          -10.9377    -0.6377    -5.2402 H       
  45 H45           -8.2695    -3.5305    -6.8842 H       
  46 H46          -10.1963    -2.0226    -7.1351 H       
  47 H47          -11.8264    -0.3534    -3.3657 H       
  48 H48          -11.1817     0.7993    -2.1724 H       
  49 H49          -10.7302     0.9482    -3.8877 H       
@<TRIPOS>BOND
   1    1   18 2
   2    2   16 1
   3    2   20 1
   4    3   21 1
   5    3   26 1
   6    4   10 1
   7    4   11 1
   8    4   29 1
   9    5   12 1
  10    5   18 am
  11    5   38 1
  12    6   18 am
  13    6   19 1
  14    6   39 1
  15    7    8 1
  16    7    9 1
  17    7   10 2
  18    8   11 ar
  19    8   13 ar
  20    9   12 1
  21    9   27 1
  22    9   28 1
  23   10   15 1
  24   11   14 ar
  25   12   30 1
  26   12   31 1
  27   13   16 ar
  28   13   32 1
  29   14   17 ar
  30   14   33 1
  31   15   34 1
  32   15   35 1
  33   15   36 1
  34   16   17 ar
  35   17   37 1
  36   19   21 ar
  37   19   22 ar
  38   20   40 1
  39   20   41 1
  40   20   42 1
  41   21   23 ar
  42   22   24 ar
  43   22   43 1
  44   23   25 ar
  45   23   44 1
  46   24   25 ar
  47   24   45 1
  48   25   46 1
  49   26   47 1
  50   26   48 1
  51   26   49 1

#	End of record

#	Name: 16194524
#	Creating user name:	landrgr1
#	Creation time:	28. 01. 2015 13:52

#	Modifying user name:	landrgr1
#	Modification time:	28. 01. 2015 13:52

#	Program:	corina 3.48 0006  22.01.2010

@<TRIPOS>MOLECULE
16194524
  43   46    0    0    0
SMALL
NO_CHARGES


@<TRIPOS>ATOM
   1 F1            -1.9305     5.1486    -0.9082 F       
   2 O2            -0.8383    -0.6863     5.2004 O.2     
   3 O3             0.3704     1.6035     0.1099 O.3     
   4 N4            -1.2094     1.1788     4.0144 N.am    
   5 N5            -1.0162     0.5254     2.8305 N.3     
   6 N6            -1.7119     3.2009     5.1081 N.2     
   7 C7            -1.5140     2.5126     4.0130 C.2     
   8 C8            -1.3220     1.2545     6.4253 C.ar    
   9 C9             0.4112     0.2669     2.5986 C.3     
  10 C10           -1.1037     0.5015     5.1814 C.2     
  11 C11           -1.6274     2.6315     6.3271 C.ar    
  12 C12           -1.6243     3.2084     2.7144 C.ar    
  13 C13            0.5845    -0.4534     1.2864 C.ar    
  14 C14           -1.2352     0.6471     7.6759 C.ar    
  15 C15           -1.8390     3.3703     7.4946 C.ar    
  16 C16           -2.1020     2.5272     1.5929 C.ar    
  17 C17           -1.2565     4.5510     2.6054 C.ar    
  18 C18            0.5555     0.2573     0.0950 C.ar    
  19 C19            0.7781    -1.8209     1.2689 C.ar    
  20 C20           -1.4484     1.3971     8.8122 C.ar    
  21 C21           -1.7430     2.7511     8.7202 C.ar    
  22 C22           -2.2029     3.1813     0.3836 C.ar    
  23 C23           -1.3614     5.1954     1.3911 C.ar    
  24 C24            0.7154    -0.4087    -1.1112 C.ar    
  25 C25            0.9372    -2.4826     0.0650 C.ar    
  26 C26           -1.8306     4.5127     0.2795 C.ar    
  27 C27            0.9030    -1.7775    -1.1237 C.ar    
  28 H28            0.9515     1.2131     2.5679 H       
  29 H29            0.8046    -0.3500     3.4065 H       
  30 H30           -1.5486    -0.3311     2.7992 H       
  31 H31           -1.0026    -0.4046     7.7545 H       
  32 H32           -2.0764     4.4222     7.4354 H       
  33 H33           -2.3917     1.4899     1.6727 H       
  34 H34           -0.8910     5.0838     3.4708 H       
  35 H35            0.8055    -2.3739     2.1962 H       
  36 H36           -1.3816     0.9287     9.7831 H       
  37 H37           -1.9069     3.3236     9.6212 H       
  38 H38           -2.5722     2.6555    -0.4845 H       
  39 H39           -1.0773     6.2338     1.3057 H       
  40 H40            0.6928     0.1422    -2.0399 H       
  41 H41            1.0888    -3.5518     0.0534 H       
  42 H42            1.0271    -2.2966    -2.0626 H       
  43 H43            1.1906     2.1127     0.1643 H       
@<TRIPOS>BOND
   1    1   26 1
   2    2   10 2
   3    3   18 1
   4    3   43 1
   5    4    5 1
   6    4    7 1
   7    4   10 am
   8    5    9 1
   9    5   30 1
  10    6    7 2
  11    6   11 1
  12    7   12 1
  13    8   10 1
  14    8   11 ar
  15    8   14 ar
  16    9   13 1
  17    9   28 1
  18    9   29 1
  19   11   15 ar
  20   12   16 ar
  21   12   17 ar
  22   13   18 ar
  23   13   19 ar
  24   14   20 ar
  25   14   31 1
  26   15   21 ar
  27   15   32 1
  28   16   22 ar
  29   16   33 1
  30   17   23 ar
  31   17   34 1
  32   18   24 ar
  33   19   25 ar
  34   19   35 1
  35   20   21 ar
  36   20   36 1
  37   21   37 1
  38   22   26 ar
  39   22   38 1
  40   23   26 ar
  41   23   39 1
  42   24   27 ar
  43   24   40 1
  44   25   27 ar
  45   25   41 1
  46   27   42 1

#	End of record

#	Name: 16194476
#	Creating user name:	landrgr1
#	Creation time:	28. 01. 2015 13:52

#	Modifying user name:	landrgr1
#	Modification time:	28. 01. 2015 13:52

#	Program:	corina 3.48 0006  22.01.2010

@<TRIPOS>MOLECULE
16194476
  61   63    0    0    0
SMALL
NO_CHARGES


@<TRIPOS>ATOM
   1 S1             0.1462     1.8218     0.3286 S.o2    
   2 O2             0.3231     0.4484     0.6477 O.2     
   3 O3             1.2282     2.7309     0.1802 O.2     
   4 O4            -4.1458    -2.2584    -2.3900 O.3     
   5 O5            -0.7555     4.6121     0.7337 O.2     
   6 O6             1.0425     1.5722    -3.0320 O.2     
   7 O7            -3.2333     4.0040     4.3670 O.2     
   8 O8             4.3086     2.1576    -8.0586 O.3     
   9 N9            -0.7002     1.8660    -1.0941 N.am    
  10 N10           -2.2247     2.2330     3.5023 N.am    
  11 N11           -2.0111     4.3643     2.5559 N.am    
  12 N12            0.8151     3.5527    -4.0058 N.am    
  13 C13           -0.8992     2.4924     1.5784 C.2     
  14 C14           -0.5358     2.9981    -2.0094 C.3     
  15 C15           -1.5724     0.8220    -1.4221 C.ar    
  16 C16           -1.4150     1.6958     2.5389 C.2     
  17 C17           -1.2092     3.8737     1.5892 C.2     
  18 C18            0.4972     2.6555    -3.0517 C.2     
  19 C19           -2.9195     1.0832    -1.6353 C.ar    
  20 C20           -1.0902    -0.4749    -1.5403 C.ar    
  21 C21           -1.1001     0.2221     2.5501 C.3     
  22 C22           -3.7795     0.0523    -1.9594 C.ar    
  23 C23           -1.9517    -1.5046    -1.8645 C.ar    
  24 C24           -2.5116     3.5475     3.5014 C.2     
  25 C25           -3.2981    -1.2437    -2.0717 C.ar    
  26 C26            1.7002     3.1993    -5.0329 C.ar    
  27 C27            1.7121     1.9003    -5.5230 C.ar    
  28 C28            2.5617     4.1493    -5.5650 C.ar    
  29 C29           -3.5822    -3.5678    -2.4889 C.3     
  30 C30            2.5847     1.5526    -6.5353 C.ar    
  31 C31            3.4337     3.8003    -6.5772 C.ar    
  32 C32            3.4494     2.5007    -7.0622 C.ar    
  33 C33           -4.6800    -4.5695    -2.8523 C.3     
  34 C34            5.1707     3.1840    -8.5539 C.3     
  35 C35            6.0580     2.6138    -9.6623 C.3     
  36 H36           -1.4869     3.2121    -2.4970 H       
  37 H37           -0.2097     3.8741    -1.4488 H       
  38 H38           -3.2946     2.0921    -1.5472 H       
  39 H39           -0.0419    -0.6782    -1.3791 H       
  40 H40           -2.5986     1.6601     4.1899 H       
  41 H41           -1.6026    -0.2504     3.3940 H       
  42 H42           -1.4466    -0.2305     1.6210 H       
  43 H43           -0.0232     0.0814     2.6433 H       
  44 H44           -2.2278     5.3097     2.5702 H       
  45 H45           -4.8272     0.2552    -2.1252 H       
  46 H46           -1.5768    -2.5132    -1.9565 H       
  47 H47            0.4313     4.4432    -3.9814 H       
  48 H48            1.0394     1.1618    -5.1124 H       
  49 H49            2.5495     5.1611    -5.1875 H       
  50 H50           -2.8134    -3.5751    -3.2616 H       
  51 H51           -3.1388    -3.8457    -1.5327 H       
  52 H52            2.5941     0.5422    -6.9166 H       
  53 H53            4.1038     4.5392    -6.9911 H       
  54 H54           -4.2501    -5.5683    -2.9277 H       
  55 H55           -5.4488    -4.5623    -2.0796 H       
  56 H56           -5.1234    -4.2917    -3.8085 H       
  57 H57            4.5703     4.0013    -8.9535 H       
  58 H58            5.7965     3.5558    -7.7426 H       
  59 H59            6.6584     1.7965    -9.2628 H       
  60 H60            5.4322     2.2420   -10.4736 H       
  61 H61            6.7156     3.3967   -10.0402 H       
@<TRIPOS>BOND
   1    1    2 2
   2    1    3 2
   3    1    9 am
   4    1   13 1
   5    4   25 1
   6    4   29 1
   7    5   17 2
   8    6   18 2
   9    7   24 2
  10    8   32 1
  11    8   34 1
  12    9   14 1
  13    9   15 1
  14   10   16 1
  15   10   24 am
  16   10   40 1
  17   11   17 am
  18   11   24 am
  19   11   44 1
  20   12   18 am
  21   12   26 1
  22   12   47 1
  23   13   16 2
  24   13   17 1
  25   14   18 1
  26   14   36 1
  27   14   37 1
  28   15   19 ar
  29   15   20 ar
  30   16   21 1
  31   19   22 ar
  32   19   38 1
  33   20   23 ar
  34   20   39 1
  35   21   41 1
  36   21   42 1
  37   21   43 1
  38   22   25 ar
  39   22   45 1
  40   23   25 ar
  41   23   46 1
  42   26   27 ar
  43   26   28 ar
  44   27   30 ar
  45   27   48 1
  46   28   31 ar
  47   28   49 1
  48   29   33 1
  49   29   50 1
  50   29   51 1
  51   30   32 ar
  52   30   52 1
  53   31   32 ar
  54   31   53 1
  55   33   54 1
  56   33   55 1
  57   33   56 1
  58   34   35 1
  59   34   57 1
  60   34   58 1
  61   35   59 1
  62   35   60 1
  63   35   61 1

#	End of record

#	Name: 16194442
#	Creating user name:	landrgr1
#	Creation time:	28. 01. 2015 13:52

#	Modifying user name:	landrgr1
#	Modification time:	28. 01. 2015 13:52

#	Program:	corina 3.48 0006  22.01.2010

@<TRIPOS>MOLECULE
16194442
  39   40    0    0    0
SMALL
NO_CHARGES


@<TRIPOS>ATOM
   1 I1             0.0000     0.0000     0.0000 I       
   2 S2             8.9353    12.0924     7.0385 S.3     
   3 N3            11.1942    11.0704     7.0686 N.2     
   4 C4            10.3970    10.0153     7.1041 C.2     
   5 C5             9.0623    10.3361     7.0955 C.2     
   6 C6            10.6382    12.2315     7.0316 C.2     
   7 C7            12.6519    10.9240     7.0719 C.3     
   8 C8            10.8965     8.6215     7.1483 C.ar    
   9 C9             7.9363     9.3815     7.1285 C.ar    
  10 C10           11.3888    13.5376     6.9881 C.3     
  11 C11           13.1443    10.6914     5.6420 C.3     
  12 C12           11.7643     8.2206     8.1640 C.ar    
  13 C13           10.4966     7.7032     6.1776 C.ar    
  14 C14            7.9276     8.3388     8.0575 C.ar    
  15 C15            6.8723     9.5206     6.2347 C.ar    
  16 C16           12.2262     6.9209     8.1998 C.ar    
  17 C17           10.9654     6.4064     6.2241 C.ar    
  18 C18            6.8725     7.4507     8.0828 C.ar    
  19 C19            5.8236     8.6252     6.2711 C.ar    
  20 C20           11.8305     6.0162     7.2309 C.ar    
  21 C21            5.8245     7.5908     7.1902 C.ar    
  22 H22           13.1073    11.8307     7.4700 H       
  23 H23           12.9303    10.0739     7.6948 H       
  24 H24           10.6786    14.3641     6.9626 H       
  25 H25           12.0169    13.6254     7.8746 H       
  26 H26           12.0138    13.5679     6.0956 H       
  27 H27           12.7897    11.4977     5.0000 H       
  28 H28           14.2340    10.6712     5.6318 H       
  29 H29           12.7598     9.7395     5.2757 H       
  30 H30           12.0742     8.9261     8.9207 H       
  31 H31            9.8211     8.0066     5.3914 H       
  32 H32            8.7453     8.2279     8.7543 H       
  33 H33            6.8704    10.3275     5.5169 H       
  34 H34           12.8985     6.6094     8.9856 H       
  35 H35           10.6562     5.6943     5.4733 H       
  36 H36            6.8645     6.6439     8.8007 H       
  37 H37            5.0000     8.7318     5.5807 H       
  38 H38           12.1947     5.0000     7.2631 H       
  39 H39            5.0013     6.8921     7.2139 H       
@<TRIPOS>BOND
   1    2    5 1
   2    2    6 1
   3    3    4 1
   4    3    6 2
   5    3    7 1
   6    4    5 2
   7    4    8 1
   8    5    9 1
   9    6   10 1
  10    7   11 1
  11    7   22 1
  12    7   23 1
  13    8   12 ar
  14    8   13 ar
  15    9   14 ar
  16    9   15 ar
  17   10   24 1
  18   10   25 1
  19   10   26 1
  20   11   27 1
  21   11   28 1
  22   11   29 1
  23   12   16 ar
  24   12   30 1
  25   13   17 ar
  26   13   31 1
  27   14   18 ar
  28   14   32 1
  29   15   19 ar
  30   15   33 1
  31   16   20 ar
  32   16   34 1
  33   17   20 ar
  34   17   35 1
  35   18   21 ar
  36   18   36 1
  37   19   21 ar
  38   19   37 1
  39   20   38 1
  40   21   39 1

#	End of record

#	Name: 16194356
#	Creating user name:	landrgr1
#	Creation time:	28. 01. 2015 13:52

#	Modifying user name:	landrgr1
#	Modification time:	28. 01. 2015 13:52

#	Program:	corina 3.48 0006  22.01.2010

@<TRIPOS>MOLECULE
16194356
  53   55    0    0    0
SMALL
NO_CHARGES


@<TRIPOS>ATOM
   1 Cl1            0.7984     1.9080     8.1575 Cl      
   2 Cl2           -4.0394     1.6898     4.2191 Cl      
   3 O3             0.4547     0.8553     3.3779 O.2     
   4 N4             0.0099     1.0027    -0.0351 N.3     
   5 N5             4.1802    -0.9814     2.8155 N.pl3   
   6 N6             4.4500    -1.1073     4.1828 N.2     
   7 N7             0.7537     0.4831     5.5474 N.am    
   8 C8             2.2803    -0.1002     1.3676 C.3     
   9 C9             0.9335    -0.8263     1.3074 C.3     
  10 C10            2.0422     1.4092     1.2705 C.3     
  11 C11            2.9665    -0.4190     2.6709 C.2     
  12 C12            0.2146    -0.4508     0.0096 C.3     
  13 C13            1.2912     1.7199    -0.0262 C.3     
  14 C14            2.4656    -0.1879     3.9366 C.2     
  15 C15            3.4372    -0.6387     4.8588 C.2     
  16 C16            5.0327    -1.3698     1.7731 C.ar    
  17 C17            1.1620     0.4166     4.2647 C.2     
  18 C18            6.4080    -1.2422     1.9149 C.ar    
  19 C19            4.5039    -1.8884     0.5986 C.ar    
  20 C20            7.2454    -1.6258     0.8858 C.ar    
  21 C21            5.3465    -2.2702    -0.4269 C.ar    
  22 C22            6.7155    -2.1366    -0.2849 C.ar    
  23 C23           -0.4392     1.1399     5.8688 C.ar    
  24 C24            7.6321    -2.5542    -1.4058 C.3     
  25 C25           -0.5471     1.8434     7.0625 C.ar    
  26 C26           -1.5158     1.0950     4.9931 C.ar    
  27 C27           -2.6929     1.7448     5.3135 C.ar    
  28 C28           -1.7269     2.4911     7.3771 C.ar    
  29 C29           -2.7991     2.4398     6.5058 C.ar    
  30 H30            2.9064    -0.4244     0.5363 H       
  31 H31            1.0993    -1.9033     1.3331 H       
  32 H32            0.3225    -0.5311     2.1604 H       
  33 H33            1.4487     1.7396     2.1229 H       
  34 H34            3.0001     1.9294     1.2698 H       
  35 H35           -0.7510    -0.9549    -0.0297 H       
  36 H36            0.8199    -0.7587    -0.8430 H       
  37 H37            1.8914     1.4019    -0.8787 H       
  38 H38            1.1076     2.7924    -0.0915 H       
  39 H39           -0.5459     1.2651    -0.8354 H       
  40 H40            3.3556    -0.6016     5.9351 H       
  41 H41            6.8224    -0.8430     2.8289 H       
  42 H42            3.4348    -1.9933     0.4873 H       
  43 H43            1.2869     0.0757     6.2478 H       
  44 H44            8.3153    -1.5265     0.9954 H       
  45 H45            4.9358    -2.6736    -1.3407 H       
  46 H46            7.9007    -3.6036    -1.2837 H       
  47 H47            7.1241    -2.4179    -2.3605 H       
  48 H48            8.5346    -1.9433    -1.3839 H       
  49 H49           -1.4334     0.5532     4.0625 H       
  50 H50           -1.8113     3.0380     8.3046 H       
  51 H51           -3.7197     2.9471     6.7537 H       
  52 Cl52          13.5346     8.0380    13.3046 Cl      
  53 H53           13.5346     9.4080    13.3046 H       
@<TRIPOS>BOND
   1    1   25 1
   2    2   27 1
   3    3   17 2
   4    4   12 1
   5    4   13 1
   6    4   39 1
   7    5    6 1
   8    5   11 1
   9    5   16 1
  10    6   15 2
  11    7   17 am
  12    7   23 1
  13    7   43 1
  14    8    9 1
  15    8   10 1
  16    8   11 1
  17    8   30 1
  18    9   12 1
  19    9   31 1
  20    9   32 1
  21   10   13 1
  22   10   33 1
  23   10   34 1
  24   11   14 2
  25   12   35 1
  26   12   36 1
  27   13   37 1
  28   13   38 1
  29   14   15 1
  30   14   17 1
  31   15   40 1
  32   16   18 ar
  33   16   19 ar
  34   18   20 ar
  35   18   41 1
  36   19   21 ar
  37   19   42 1
  38   20   22 ar
  39   20   44 1
  40   21   22 ar
  41   21   45 1
  42   22   24 1
  43   23   25 ar
  44   23   26 ar
  45   24   46 1
  46   24   47 1
  47   24   48 1
  48   25   28 ar
  49   26   27 ar
  50   26   49 1
  51   27   29 ar
  52   28   29 ar
  53   28   50 1
  54   29   51 1
  55   52   53 1

#	End of record

#	Name: 16194325
#	Creating user name:	landrgr1
#	Creation time:	28. 01. 2015 13:52

#	Modifying user name:	landrgr1
#	Modification time:	28. 01. 2015 13:52

#	Program:	corina 3.48 0006  22.01.2010

@<TRIPOS>MOLECULE
16194325
  64   66    0    0    0
SMALL
NO_CHARGES


@<TRIPOS>ATOM
   1 S1            -0.0218     1.7577     0.0117 S.3     
   2 S2            -8.0426     3.4410     1.5396 S.o2    
   3 O3            -2.2758    -2.6311    -0.0006 O.2     
   4 O4             1.4336    -6.1082    -0.0610 O.3     
   5 O5             3.7430    -4.6208    -0.0571 O.3     
   6 O6            -9.0340     2.5821     0.9933 O.2     
   7 O7            -7.7460     4.7241     1.0057 O.2     
   8 O8             1.0374     4.3441     0.0155 O.2     
   9 O9             5.5267     5.3464    -1.2431 O.3     
  10 N10           -1.1896    -0.6718     0.0098 N.am    
  11 N11            1.1615    -0.6129    -0.0128 N.2     
  12 N12            3.2396     4.0757    -0.0070 N.am    
  13 N13           -8.4523     3.6782     3.1265 N.am    
  14 C14           -2.4450     0.0830     0.0259 C.3     
  15 C15           -2.8718     0.3322     1.4738 C.3     
  16 C16           -4.1633     1.1087     1.4903 C.ar    
  17 C17           -1.2202    -2.0242    -0.0027 C.2     
  18 C18            0.0642    -2.7337    -0.0186 C.ar    
  19 C19            0.0021    -0.0041     0.0020 C.2     
  20 C20            1.2515    -1.9651    -0.0202 C.ar    
  21 C21           -5.3725     0.4389     1.4926 C.ar    
  22 C22           -4.1387     2.4907     1.5089 C.ar    
  23 C23            0.1320    -4.1281    -0.0327 C.ar    
  24 C24            2.4881    -2.6123    -0.0355 C.ar    
  25 C25           -6.5326     2.5332     1.5210 C.ar    
  26 C26            1.3627    -4.7496    -0.0477 C.ar    
  27 C27            2.5390    -3.9925    -0.0422 C.ar    
  28 C28           -6.5572     1.1511     1.5077 C.ar    
  29 C29           -5.3233     3.2029     1.5240 C.ar    
  30 C30            1.7562     2.0963    -0.0035 C.3     
  31 C31            1.9840     3.5860     0.0024 C.2     
  32 C32            3.4610     5.5239    -0.0013 C.3     
  33 C33            0.1959    -6.8224    -0.0585 C.3     
  34 C34            4.9072    -3.7921    -0.0650 C.3     
  35 C35            4.9639     5.8100    -0.0141 C.3     
  36 C36            6.9339     5.5665    -1.3576 C.3     
  37 H37           -2.3014     1.0378    -0.4800 H       
  38 H38           -3.2187    -0.4876    -0.4879 H       
  39 H39           -3.0154    -0.6225     1.9797 H       
  40 H40           -2.0982     0.9029     1.9876 H       
  41 H41           -5.3917    -0.6409     1.4822 H       
  42 H42           -3.1939     3.0140     1.5119 H       
  43 H43           -0.7738    -4.7162    -0.0314 H       
  44 H44            3.4015    -2.0360    -0.0424 H       
  45 H45           -7.5019     0.6278     1.5088 H       
  46 H46           -5.3041     4.2827     1.5389 H       
  47 H47            2.2177     1.6547     0.8798 H       
  48 H48            2.2007     1.6643    -0.9001 H       
  49 H49            3.9966     3.4694    -0.0175 H       
  50 H50            2.9995     5.9654    -0.8846 H       
  51 H51            3.0165     5.9559     0.8953 H       
  52 H52           -9.2919     3.3322     3.4676 H       
  53 H53           -7.8528     4.1632     3.7150 H       
  54 H54           -0.3690    -6.5674     0.8382 H       
  55 H55           -0.3823    -6.5506    -0.9417 H       
  56 H56            0.3947    -7.8941    -0.0701 H       
  57 H57            5.7990    -4.4187    -0.0768 H       
  58 H58            4.8963    -3.1588    -0.9521 H       
  59 H59            4.9141    -3.1669     0.8278 H       
  60 H60            5.4391     5.2944     0.8204 H       
  61 H61            5.1303     6.8832     0.0796 H       
  62 H62            7.2841     5.1870    -2.3176 H       
  63 H63            7.1412     6.6346    -1.2918 H       
  64 H64            7.4500     5.0459    -0.5510 H       
@<TRIPOS>BOND
   1    1   19 1
   2    1   30 1
   3    2    6 2
   4    2    7 2
   5    2   13 am
   6    2   25 1
   7    3   17 2
   8    4   26 1
   9    4   33 1
  10    5   27 1
  11    5   34 1
  12    8   31 2
  13    9   35 1
  14    9   36 1
  15   10   14 1
  16   10   17 am
  17   10   19 1
  18   11   19 2
  19   11   20 1
  20   12   31 am
  21   12   32 1
  22   12   49 1
  23   13   52 1
  24   13   53 1
  25   14   15 1
  26   14   37 1
  27   14   38 1
  28   15   16 1
  29   15   39 1
  30   15   40 1
  31   16   21 ar
  32   16   22 ar
  33   17   18 1
  34   18   20 ar
  35   18   23 ar
  36   20   24 ar
  37   21   28 ar
  38   21   41 1
  39   22   29 ar
  40   22   42 1
  41   23   26 ar
  42   23   43 1
  43   24   27 ar
  44   24   44 1
  45   25   28 ar
  46   25   29 ar
  47   26   27 ar
  48   28   45 1
  49   29   46 1
  50   30   31 1
  51   30   47 1
  52   30   48 1
  53   32   35 1
  54   32   50 1
  55   32   51 1
  56   33   54 1
  57   33   55 1
  58   33   56 1
  59   34   57 1
  60   34   58 1
  61   34   59 1
  62   35   60 1
  63   35   61 1
  64   36   62 1
  65   36   63 1
  66   36   64 1

#	End of record

#	Name: 16194309
#	Creating user name:	landrgr1
#	Creation time:	28. 01. 2015 13:52

#	Modifying user name:	landrgr1
#	Modification time:	28. 01. 2015 13:52

#	Program:	corina 3.48 0006  22.01.2010

@<TRIPOS>MOLECULE
16194309
  48   51    0    0    0
SMALL
NO_CHARGES


@<TRIPOS>ATOM
   1 S1             1.0560     1.2767    -0.3167 S.o2    
   2 S2            -1.5172     1.3259     2.9071 S.3     
   3 O3             2.3732     1.5687     0.1293 O.2     
   4 O4             0.4503     2.0322    -1.3567 O.2     
   5 O5            -0.4758     6.1126     3.8891 O.2     
   6 N6             0.0314     2.8152     1.6900 N.pl3   
   7 N7            -0.7016     0.6619     1.5771 N.2     
   8 N8            -0.9684     3.9800     3.4879 N.2     
   9 N9             1.5971     3.8908     0.2542 N.pl3   
  10 N10            3.8262     6.8440     4.2065 N.2     
  11 C11            0.8690    -0.5004    -0.6291 C.3     
  12 C12            1.7118    -0.8962    -1.8432 C.3     
  13 C13            0.0423     1.5847     1.0912 C.2     
  14 C14            3.1942    -0.6954    -1.5223 C.3     
  15 C15            1.4580    -2.3663    -2.1827 C.3     
  16 C16            0.7539     3.9357     1.3248 C.2     
  17 C17           -0.8056     2.8878     2.7653 C.2     
  18 C18            0.6126     5.1170     2.0624 C.2     
  19 C19            2.3394     6.7423     2.5553 C.2     
  20 C20            1.3319     6.2757     1.7186 C.2     
  21 C21            3.0551     8.0292     2.4692 C.ar    
  22 C22           -0.3129     5.1108     3.2101 C.2     
  23 C23            2.9034     6.0859     3.6762 C.2     
  24 C24            3.9725     8.0146     3.5432 C.ar    
  25 C25            2.9910     9.1241     1.6165 C.ar    
  26 C26            2.5014     4.7235     4.1796 C.3     
  27 C27            4.8123     9.1183     3.7307 C.ar    
  28 C28            3.8288    10.2001     1.8227 C.ar    
  29 C29            4.7342    10.1929     2.8747 C.ar    
  30 H30            1.2044    -1.0601     0.2440 H       
  31 H31           -0.1791    -0.7265    -0.8251 H       
  32 H32            1.4368    -0.2739    -2.6948 H       
  33 H33            3.4691    -1.3177    -0.6707 H       
  34 H34            3.7946    -0.9774    -2.3872 H       
  35 H35            3.3750     0.3519    -1.2804 H       
  36 H36            0.4019    -2.5094    -2.4113 H       
  37 H37            2.0584    -2.6483    -3.0477 H       
  38 H38            1.7330    -2.9886    -1.3311 H       
  39 H39            1.1015     6.8029     0.8046 H       
  40 H40            1.2974     3.5041    -0.5834 H       
  41 H41            2.4967     4.2454     0.3302 H       
  42 H42            2.2889     9.1324     0.7959 H       
  43 H43            3.1168     4.4576     5.0391 H       
  44 H44            1.4524     4.7404     4.4752 H       
  45 H45            2.6442     3.9872     3.3887 H       
  46 H46            5.5204     9.1267     4.5462 H       
  47 H47            3.7809    11.0524     1.1611 H       
  48 H48            5.3847    11.0420     3.0241 H       
@<TRIPOS>BOND
   1    1    3 2
   2    1    4 2
   3    1   11 1
   4    1   13 1
   5    2    7 1
   6    2   17 1
   7    5   22 2
   8    6   13 1
   9    6   16 1
  10    6   17 1
  11    7   13 2
  12    8   17 2
  13    8   22 1
  14    9   16 1
  15    9   40 1
  16    9   41 1
  17   10   23 2
  18   10   24 1
  19   11   12 1
  20   11   30 1
  21   11   31 1
  22   12   14 1
  23   12   15 1
  24   12   32 1
  25   14   33 1
  26   14   34 1
  27   14   35 1
  28   15   36 1
  29   15   37 1
  30   15   38 1
  31   16   18 2
  32   18   20 1
  33   18   22 1
  34   19   20 2
  35   19   21 1
  36   19   23 1
  37   20   39 1
  38   21   24 ar
  39   21   25 ar
  40   23   26 1
  41   24   27 ar
  42   25   28 ar
  43   25   42 1
  44   26   43 1
  45   26   44 1
  46   26   45 1
  47   27   29 ar
  48   27   46 1
  49   28   29 ar
  50   28   47 1
  51   29   48 1

#	End of record

#	Name: 16194308
#	Creating user name:	landrgr1
#	Creation time:	28. 01. 2015 13:52

#	Modifying user name:	landrgr1
#	Modification time:	28. 01. 2015 13:52

#	Program:	corina 3.48 0006  22.01.2010

@<TRIPOS>MOLECULE
16194308
  61   63    0    0    0
SMALL
NO_CHARGES


@<TRIPOS>ATOM
   1 S1            -0.0172     1.4168     0.0098 S.o2    
   2 O2            -0.5680    -0.8970    -9.1259 O.3     
   3 O3            -2.5833     2.8224    -3.3493 O.2     
   4 O4            -2.7099    -0.5107    -8.7431 O.2     
   5 O5             0.0021    -0.0041     0.0020 O.2     
   6 O6             1.1903     2.1659     0.0023 O.2     
   7 O7            -1.8975     4.6296     5.6952 O.2     
   8 N8            -1.2773     2.1075    -4.9941 N.am    
   9 N9            -2.6751     2.6197     5.1682 N.am    
  10 C10           -1.2319     0.8742    -7.5391 C.3     
  11 C11           -2.5304     1.4676    -6.9878 C.3     
  12 C12           -0.3987     0.3072    -6.3874 C.3     
  13 C13           -2.1960     2.6107    -6.0244 C.3     
  14 C14           -0.0402     1.4372    -5.4172 C.3     
  15 C15           -1.5612     2.2628    -3.6858 C.2     
  16 C16           -0.6088     1.7411    -2.6409 C.3     
  17 C17           -1.5578    -0.2284    -8.5134 C.2     
  18 C18           -1.1637     2.0448    -1.2478 C.3     
  19 C19           -2.2465     1.2717     3.3511 C.ar    
  20 C20           -3.2226     0.5031     4.2131 C.3     
  21 C21           -1.9758     2.4840     3.9649 C.ar    
  22 C22           -3.4884     1.4257     5.4139 C.3     
  23 C23           -0.7770     1.8326     1.5442 C.ar    
  24 C24           -1.6502     0.9471     2.1475 C.ar    
  25 C25           -1.0919     3.3729     3.3498 C.ar    
  26 C26           -0.5002     3.0453     2.1488 C.ar    
  27 C27           -2.6067     3.6894     5.9853 C.2     
  28 C28           -3.4113     3.7173     7.2592 C.3     
  29 C29           -0.9557    -1.9463   -10.0516 C.3     
  30 C30           -3.1544     5.0333     7.9960 C.3     
  31 C31            0.2981    -2.5900   -10.6470 C.3     
  32 H32           -0.6645     1.6529    -8.0488 H       
  33 H33           -3.1339     1.8502    -7.8109 H       
  34 H34           -3.0866     0.6951    -6.4566 H       
  35 H35           -0.9751    -0.4543    -5.8620 H       
  36 H36            0.5150    -0.1361    -6.7833 H       
  37 H37           -3.1107     2.9713    -5.5537 H       
  38 H38           -1.7200     3.4235    -6.5730 H       
  39 H39            0.6116     2.1543    -5.9163 H       
  40 H40            0.4676     1.0235    -4.5460 H       
  41 H41           -0.4941     0.6636    -2.7594 H       
  42 H42            0.3608     2.2249    -2.7592 H       
  43 H43           -2.1333     1.5610    -1.1296 H       
  44 H44           -1.2784     3.1222    -1.1294 H       
  45 H45           -4.1466     0.3152     3.6662 H       
  46 H46           -2.7790    -0.4354     4.5456 H       
  47 H47           -3.1780     0.9407     6.3394 H       
  48 H48           -4.5446     1.6907     5.4607 H       
  49 H49           -1.8673    -0.0005     1.6770 H       
  50 H50           -0.8709     4.3211     3.8171 H       
  51 H51            0.1822     3.7378     1.6785 H       
  52 H52           -4.4718     3.6353     7.0210 H       
  53 H53           -3.1159     2.8818     7.8939 H       
  54 H54           -1.5356    -2.7021    -9.5220 H       
  55 H55           -1.5601    -1.5195   -10.8521 H       
  56 H56           -3.7364     5.0534     8.9174 H       
  57 H57           -2.0939     5.1153     8.2342 H       
  58 H58           -3.4499     5.8687     7.3613 H       
  59 H59            0.0070    -3.3777   -11.3419 H       
  60 H60            0.8780    -1.8342   -11.1767 H       
  61 H61            0.9024    -3.0167    -9.8465 H       
@<TRIPOS>BOND
   1    1    5 2
   2    1    6 2
   3    1   18 1
   4    1   23 1
   5    2   17 1
   6    2   29 1
   7    3   15 2
   8    4   17 2
   9    7   27 2
  10    8   13 1
  11    8   14 1
  12    8   15 am
  13    9   21 1
  14    9   22 1
  15    9   27 am
  16   10   11 1
  17   10   12 1
  18   10   17 1
  19   10   32 1
  20   11   13 1
  21   11   33 1
  22   11   34 1
  23   12   14 1
  24   12   35 1
  25   12   36 1
  26   13   37 1
  27   13   38 1
  28   14   39 1
  29   14   40 1
  30   15   16 1
  31   16   18 1
  32   16   41 1
  33   16   42 1
  34   18   43 1
  35   18   44 1
  36   19   20 1
  37   19   21 ar
  38   19   24 ar
  39   20   22 1
  40   20   45 1
  41   20   46 1
  42   21   25 ar
  43   22   47 1
  44   22   48 1
  45   23   24 ar
  46   23   26 ar
  47   24   49 1
  48   25   26 ar
  49   25   50 1
  50   26   51 1
  51   27   28 1
  52   28   30 1
  53   28   52 1
  54   28   53 1
  55   29   31 1
  56   29   54 1
  57   29   55 1
  58   30   56 1
  59   30   57 1
  60   30   58 1
  61   31   59 1
  62   31   60 1
  63   31   61 1

#	End of record

#	Name: 16194300
#	Creating user name:	landrgr1
#	Creation time:	28. 01. 2015 13:52

#	Modifying user name:	landrgr1
#	Modification time:	28. 01. 2015 13:52

#	Program:	corina 3.48 0006  22.01.2010

@<TRIPOS>MOLECULE
16194300
  69   72    0    0    0
SMALL
NO_CHARGES


@<TRIPOS>ATOM
   1 S1            -1.0099     1.0976    -0.8692 S.o2    
   2 O2            -4.8172     1.1820    -5.3316 O.3     
   3 O3             1.5672     6.2309    -1.4238 O.2     
   4 O4            -0.6583    -0.2728    -1.0010 O.2     
   5 O5            -0.4464     1.9534     0.1153 O.2     
   6 O6            -6.8398     1.2473    -0.0614 O.3     
   7 N7             1.4147    11.3242    -1.4685 N.3     
   8 N8             0.2082     7.8314    -2.1486 N.am    
   9 N9            -3.1195     2.5162    -3.5357 N.3     
  10 N10           -0.6995     1.8030    -2.3350 N.am    
  11 C11            0.5150    10.2507    -1.9636 C.3     
  12 C12            0.3672    10.5330    -3.4742 C.3     
  13 C13            0.6695    12.0374    -3.6323 C.3     
  14 C14            0.9745    12.5376    -2.2040 C.3     
  15 C15            1.1486     8.8767    -1.7370 C.3     
  16 C16            1.2690    11.5059    -0.0181 C.3     
  17 C17            2.3134    12.5080     0.4778 C.3     
  18 C18            0.5123     6.5340    -1.9471 C.2     
  19 C19           -0.4347     5.4814    -2.3616 C.ar    
  20 C20           -2.2217     3.5069    -3.1430 C.ar    
  21 C21           -2.5661     1.7082    -4.6322 C.3     
  22 C22           -4.4130     3.0997    -3.9200 C.3     
  23 C23           -1.0105     3.1526    -2.5424 C.ar    
  24 C24           -0.1202     4.1352    -2.1531 C.ar    
  25 C25           -1.6498     5.8287    -2.9578 C.ar    
  26 C26           -3.5570     0.5977    -4.9911 C.3     
  27 C27           -5.3854     1.9752    -4.2861 C.3     
  28 C28           -2.5344     4.8460    -3.3444 C.ar    
  29 C29           -2.7547     1.1426    -0.6278 C.ar    
  30 C30           -3.5397     0.0931    -1.0684 C.ar    
  31 C31           -3.3360     2.2247     0.0069 C.ar    
  32 C32           -4.9078     0.1257    -0.8799 C.ar    
  33 C33           -4.7037     2.2622     0.1978 C.ar    
  34 C34           -5.4941     1.2128    -0.2480 C.ar    
  35 C35           -7.3742     2.3977     0.5965 C.3     
  36 H36           -0.4547    10.3094    -1.4693 H       
  37 H37            1.0850     9.9409    -4.0420 H       
  38 H38           -0.6489    10.3145    -3.8025 H       
  39 H39            1.5357    12.1837    -4.2777 H       
  40 H40           -0.1982    12.5573    -4.0383 H       
  41 H41            0.0767    12.9541    -1.7473 H       
  42 H42            1.7719    13.2805    -2.2235 H       
  43 H43            1.3862     8.7560    -0.6801 H       
  44 H44            2.0620     8.7961    -2.3263 H       
  45 H45            0.2703    11.8830     0.2023 H       
  46 H46            1.4154    10.5498     0.4844 H       
  47 H47           -0.6333     8.0731    -2.5661 H       
  48 H48            2.2053    12.6428     1.5540 H       
  49 H49            3.3121    12.1309     0.2575 H       
  50 H50            2.1670    13.4641    -0.0247 H       
  51 H51           -2.3989     2.3422    -5.5029 H       
  52 H52           -1.6214     1.2652    -4.3169 H       
  53 H53           -4.8165     3.6723    -3.0850 H       
  54 H54           -4.2753     3.7559    -4.7794 H       
  55 H55            0.8165     3.8638    -1.6890 H       
  56 H56           -3.6832    -0.0675    -4.1369 H       
  57 H57           -3.1768     0.0314    -5.8412 H       
  58 H58           -6.3275     2.4051    -4.6263 H       
  59 H59           -5.5648     1.3501    -3.4114 H       
  60 H60           -1.8957     6.8684    -3.1157 H       
  61 H61           -3.4711     5.1166    -3.8088 H       
  62 H62           -0.3023     1.2814    -3.0498 H       
  63 H63           -3.0829    -0.7528    -1.5605 H       
  64 H64           -2.7202     3.0413     0.3541 H       
  65 H65           -5.5206    -0.6941    -1.2245 H       
  66 H66           -5.1572     3.1075     0.6939 H       
  67 H67           -8.4563     2.2980     0.6810 H       
  68 H68           -6.9383     2.4823     1.5919 H       
  69 H69           -7.1357     3.2905     0.0184 H       
@<TRIPOS>BOND
   1    1    4 2
   2    1    5 2
   3    1   10 am
   4    1   29 1
   5    2   26 1
   6    2   27 1
   7    3   18 2
   8    6   34 1
   9    6   35 1
  10    7   11 1
  11    7   14 1
  12    7   16 1
  13    8   15 1
  14    8   18 am
  15    8   47 1
  16    9   20 1
  17    9   21 1
  18    9   22 1
  19   10   23 1
  20   10   62 1
  21   11   12 1
  22   11   15 1
  23   11   36 1
  24   12   13 1
  25   12   37 1
  26   12   38 1
  27   13   14 1
  28   13   39 1
  29   13   40 1
  30   14   41 1
  31   14   42 1
  32   15   43 1
  33   15   44 1
  34   16   17 1
  35   16   45 1
  36   16   46 1
  37   17   48 1
  38   17   49 1
  39   17   50 1
  40   18   19 1
  41   19   24 ar
  42   19   25 ar
  43   20   23 ar
  44   20   28 ar
  45   21   26 1
  46   21   51 1
  47   21   52 1
  48   22   27 1
  49   22   53 1
  50   22   54 1
  51   23   24 ar
  52   24   55 1
  53   25   28 ar
  54   25   60 1
  55   26   56 1
  56   26   57 1
  57   27   58 1
  58   27   59 1
  59   28   61 1
  60   29   30 ar
  61   29   31 ar
  62   30   32 ar
  63   30   63 1
  64   31   33 ar
  65   31   64 1
  66   32   34 ar
  67   32   65 1
  68   33   34 ar
  69   33   66 1
  70   35   67 1
  71   35   68 1
  72   35   69 1

#	End of record

#	Name: 16194294
#	Creating user name:	landrgr1
#	Creation time:	28. 01. 2015 13:52

#	Modifying user name:	landrgr1
#	Modification time:	28. 01. 2015 13:52

#	Program:	corina 3.48 0006  22.01.2010

@<TRIPOS>MOLECULE
16194294
  70   72    0    0    0
SMALL
NO_CHARGES


@<TRIPOS>ATOM
   1 S1            -7.8351    -1.6791     4.7263 S.o2    
   2 S2            -4.7111     2.1007     0.7871 S.3     
   3 O3            -7.3209    -1.2872     9.0127 O.3     
   4 O4            -7.3251    -2.9886     4.5156 O.2     
   5 O5            -9.2109    -1.3499     4.5920 O.2     
   6 O6            -1.7684    -0.2501     0.9889 O.2     
   7 O7            -2.4513    -1.4261     3.9203 O.2     
   8 N8            -7.3995    -1.2496     6.2651 N.am    
   9 N9            -0.2023    -7.1346     5.9958 N.3     
  10 N10           -3.7643    -0.5631     1.8203 N.am    
  11 N11           -2.3201    -3.5758     3.3878 N.am    
  12 C12           -8.1521    -0.2261     7.0076 C.3     
  13 C13           -6.2487    -1.8807     6.9306 C.3     
  14 C14           -0.5075    -5.6983     5.9521 C.3     
  15 C15           -6.9603    -0.6209     3.6220 C.ar    
  16 C16           -8.5075    -0.7929     8.3869 C.3     
  17 C17           -6.6969    -2.3668     8.3136 C.3     
  18 C18           -1.2711    -5.3782     4.6654 C.3     
  19 C19            0.7289    -7.4418     7.0897 C.3     
  20 C20           -1.4314    -7.9308     6.1116 C.3     
  21 C21           -5.0169    -0.1671     2.2829 C.ar    
  22 C22           -5.7154    -0.9946     3.1554 C.ar    
  23 C23           -1.5890    -3.8823     4.6198 C.3     
  24 C24           -5.5913     1.0422     1.8906 C.ar    
  25 C25            2.1418    -7.0088     6.6934 C.3     
  26 C26           -1.1302    -9.3882     5.7567 C.3     
  27 C27           -7.5247     0.5787     3.2281 C.ar    
  28 C28           -3.4598    -1.9954     1.8640 C.3     
  29 C29           -6.8407     1.4115     2.3619 C.ar    
  30 C30           -2.8189     0.2429     1.3421 C.2     
  31 C31           -2.7078    -2.3107     3.1313 C.2     
  32 C32           -2.9842     1.7323     1.2171 C.3     
  33 C33            3.0933    -7.2347     7.8701 C.3     
  34 C34           -2.4312   -10.1934     5.7607 C.3     
  35 H35           -7.5389     0.6675     7.1248 H       
  36 H36           -9.0650     0.0229     6.4667 H       
  37 H37           -5.9012    -2.7274     6.3387 H       
  38 H38           -5.4440    -1.1537     7.0401 H       
  39 H39           -1.1191    -5.4304     6.8137 H       
  40 H40            0.4214    -5.1286     5.9746 H       
  41 H41           -9.2246    -1.6058     8.2727 H       
  42 H42           -8.9431    -0.0060     9.0027 H       
  43 H43           -5.8298    -2.7123     8.8767 H       
  44 H44           -7.4074    -3.1855     8.1992 H       
  45 H45           -0.6595    -5.6461     3.8038 H       
  46 H46           -2.2000    -5.9480     4.6429 H       
  47 H47            0.4233    -6.9059     7.9883 H       
  48 H48            0.7189    -8.5141     7.2851 H       
  49 H49           -1.8051    -7.8755     7.1340 H       
  50 H50           -2.1841    -7.5384     5.4278 H       
  51 H51           -5.2828    -1.9332     3.4689 H       
  52 H52           -0.6601    -3.3126     4.6424 H       
  53 H53           -2.2006    -3.6144     5.4814 H       
  54 H54            2.4756    -7.5965     5.8383 H       
  55 H55            2.1369    -5.9516     6.4280 H       
  56 H56           -0.6770    -9.4349     4.7665 H       
  57 H57           -0.4419    -9.8063     6.4913 H       
  58 H58           -8.4990     0.8643     3.5962 H       
  59 H59           -4.3888    -2.5652     1.8414 H       
  60 H60           -2.8483    -2.2633     1.0024 H       
  61 H61           -7.2795     2.3490     2.0536 H       
  62 H62           -2.5252    -4.2833     2.7568 H       
  63 H63           -2.3252     2.1080     0.4344 H       
  64 H64           -2.7349     2.2082     2.1655 H       
  65 H65            4.0999    -6.9262     7.5878 H       
  66 H66            2.7596    -6.6469     8.7252 H       
  67 H67            3.0983    -8.2919     8.1355 H       
  68 H68           -3.1194    -9.7754     5.0261 H       
  69 H69           -2.2166   -11.2318     5.5079 H       
  70 H70           -2.8843   -10.1467     6.7510 H       
@<TRIPOS>BOND
   1    1    4 2
   2    1    5 2
   3    1    8 am
   4    1   15 1
   5    2   24 1
   6    2   32 1
   7    3   16 1
   8    3   17 1
   9    6   30 2
  10    7   31 2
  11    8   12 1
  12    8   13 1
  13    9   14 1
  14    9   19 1
  15    9   20 1
  16   10   21 1
  17   10   28 1
  18   10   30 am
  19   11   23 1
  20   11   31 am
  21   11   62 1
  22   12   16 1
  23   12   35 1
  24   12   36 1
  25   13   17 1
  26   13   37 1
  27   13   38 1
  28   14   18 1
  29   14   39 1
  30   14   40 1
  31   15   22 ar
  32   15   27 ar
  33   16   41 1
  34   16   42 1
  35   17   43 1
  36   17   44 1
  37   18   23 1
  38   18   45 1
  39   18   46 1
  40   19   25 1
  41   19   47 1
  42   19   48 1
  43   20   26 1
  44   20   49 1
  45   20   50 1
  46   21   22 ar
  47   21   24 ar
  48   22   51 1
  49   23   52 1
  50   23   53 1
  51   24   29 ar
  52   25   33 1
  53   25   54 1
  54   25   55 1
  55   26   34 1
  56   26   56 1
  57   26   57 1
  58   27   29 ar
  59   27   58 1
  60   28   31 1
  61   28   59 1
  62   28   60 1
  63   29   61 1
  64   30   32 1
  65   32   63 1
  66   32   64 1
  67   33   65 1
  68   33   66 1
  69   33   67 1
  70   34   68 1
  71   34   69 1
  72   34   70 1

#	End of record

#	Name: 16194290
#	Creating user name:	landrgr1
#	Creation time:	28. 01. 2015 13:52

#	Modifying user name:	landrgr1
#	Modification time:	28. 01. 2015 13:52

#	Program:	corina 3.48 0006  22.01.2010

@<TRIPOS>MOLECULE
16194290
  37   38    0    0    0
SMALL
NO_CHARGES


@<TRIPOS>ATOM
   1 Cl1           10.5566     2.3738     1.6058 Cl      
   2 O2             6.2606     0.8492     0.6642 O.2     
   3 N3             0.0582     0.9826    -0.2008 N.pl3   
   4 N4             0.1940    -0.4111    -0.2391 N.2     
   5 N5             4.1368     0.6392     1.2800 N.am    
   6 N6             5.8630     0.7532     2.8474 N.am    
   7 C7             2.1870     0.5014    -0.1582 C.2     
   8 C8             1.2954     1.5193    -0.1515 C.2     
   9 C9             3.6873     0.6366    -0.1143 C.3     
  10 C10            1.4702    -0.6983    -0.2135 C.2     
  11 C11            1.6250     2.9888    -0.0988 C.3     
  12 C12            2.0650    -2.0827    -0.2393 C.3     
  13 C13           -1.2038     1.7264    -0.2177 C.3     
  14 C14            5.4495     0.7508     1.5646 C.2     
  15 C15            7.2311     0.7714     3.1414 C.ar    
  16 C16            8.1079     1.4766     2.3283 C.ar    
  17 C17            7.7135     0.0888     4.2507 C.ar    
  18 C18            9.4588     1.4925     2.6216 C.ar    
  19 C19            9.0640     0.1083     4.5388 C.ar    
  20 C20            9.9365     0.8062     3.7241 C.ar    
  21 H21            3.9821     1.5706    -0.5929 H       
  22 H22            4.1432    -0.2014    -0.6415 H       
  23 H23            1.6772     3.3125     0.9407 H       
  24 H24            2.5862     3.1632    -0.5823 H       
  25 H25            0.8500     3.5538    -0.6167 H       
  26 H26            2.2363    -2.3854    -1.2723 H       
  27 H27            3.0118    -2.0815     0.3008 H       
  28 H28            1.3771    -2.7826     0.2351 H       
  29 H29            3.4898     0.5607     1.9983 H       
  30 H30           -1.5489     1.8799     0.8048 H       
  31 H31           -1.0497     2.6927    -0.6981 H       
  32 H32           -1.9519     1.1601    -0.7725 H       
  33 H33            5.2124     0.7422     3.5667 H       
  34 H34            7.7351     2.0117     1.4674 H       
  35 H35            7.0329    -0.4566     4.8877 H       
  36 H36            9.4391    -0.4222     5.4015 H       
  37 H37           10.9923     0.8195     3.9514 H       
@<TRIPOS>BOND
   1    1   18 1
   2    2   14 2
   3    3    4 1
   4    3    8 1
   5    3   13 1
   6    4   10 2
   7    5    9 1
   8    5   14 am
   9    5   29 1
  10    6   14 am
  11    6   15 1
  12    6   33 1
  13    7    8 2
  14    7    9 1
  15    7   10 1
  16    8   11 1
  17    9   21 1
  18    9   22 1
  19   10   12 1
  20   11   23 1
  21   11   24 1
  22   11   25 1
  23   12   26 1
  24   12   27 1
  25   12   28 1
  26   13   30 1
  27   13   31 1
  28   13   32 1
  29   15   16 ar
  30   15   17 ar
  31   16   18 ar
  32   16   34 1
  33   17   19 ar
  34   17   35 1
  35   18   20 ar
  36   19   20 ar
  37   19   36 1
  38   20   37 1

#	End of record

#	Name: 16194282
#	Creating user name:	landrgr1
#	Creation time:	28. 01. 2015 13:52

#	Modifying user name:	landrgr1
#	Modification time:	28. 01. 2015 13:52

#	Program:	corina 3.48 0006  22.01.2010

@<TRIPOS>MOLECULE
16194282
  53   56    0    0    0
SMALL
NO_CHARGES


@<TRIPOS>ATOM
   1 O1            -1.3679     1.4062    -4.2588 O.2     
   2 O2            -3.2651     3.7701    -0.6831 O.2     
   3 O3            -1.6592     2.6346    -1.4461 O.2     
   4 O4            -4.0986     3.8531     4.2139 O.2     
   5 N5             0.0957     1.6388     0.0174 N.3     
   6 N6             0.4007     1.5625    -2.9124 N.am    
   7 N7            -2.2882     3.0670    -0.4969 N.pl3   
   8 N8            -2.6800     2.9363     5.6565 N.am    
   9 C9             0.9377    -0.2552    -1.3148 C.3     
  10 C10            2.1971     1.8679    -1.1899 C.3     
  11 C11            2.3461     0.3448    -1.2776 C.3     
  12 C12            0.1335     0.1775    -0.0981 C.3     
  13 C13            1.4525     2.1987     0.1142 C.3     
  14 C14            0.2553     0.1376    -2.6140 C.3     
  15 C15            1.3389     2.3503    -2.3379 C.2     
  16 C16           -0.6844     2.0332     1.0987 C.ar    
  17 C17            1.5219     3.6293    -2.7603 C.2     
  18 C18           -0.4541     2.0889    -3.8243 C.2     
  19 C19            0.6975     4.1760    -3.7499 C.2     
  20 C20           -0.3002     3.4073    -4.2739 C.2     
  21 C21           -1.8652     2.7380     0.8829 C.ar    
  22 C22           -0.2858     1.7172     2.3949 C.ar    
  23 C23           -2.6395     3.1297     1.9511 C.ar    
  24 C24           -1.0558     2.1056     3.4670 C.ar    
  25 C25           -2.2394     2.8187     3.2538 C.ar    
  26 C26           -3.0671     3.2370     4.4010 C.2     
  27 C27           -3.5020     3.3518     6.7958 C.3     
  28 C28           -4.5967     2.3114     7.0411 C.3     
  29 C29           -2.6229     3.4707     8.0424 C.3     
  30 H30            1.0272    -1.3414    -1.2989 H       
  31 H31            3.1751     2.3490    -1.2045 H       
  32 H32            2.8831    -0.0254    -0.4043 H       
  33 H33            2.8862     0.0775    -2.1859 H       
  34 H34            0.5897    -0.2405     0.7992 H       
  35 H35           -0.8848    -0.2004    -0.1897 H       
  36 H36            1.3967     3.2797     0.2426 H       
  37 H37            1.9755     1.7530     0.9603 H       
  38 H38           -0.8057    -0.1013    -2.5416 H       
  39 H39            0.6903    -0.4399    -3.4297 H       
  40 H40            2.3099     4.2285    -2.3284 H       
  41 H41            0.8486     5.1888    -4.0931 H       
  42 H42           -0.9629     3.8094    -5.0260 H       
  43 H43            0.6286     1.1663     2.5589 H       
  44 H44           -3.5552     3.6772     1.7831 H       
  45 H45           -0.7463     1.8599     4.4721 H       
  46 H46           -1.8571     2.4449     5.8057 H       
  47 H47           -3.9599     4.3172     6.5806 H       
  48 H48           -4.1388     1.3460     7.2563 H       
  49 H49           -5.2083     2.6205     7.8887 H       
  50 H50           -5.2230     2.2267     6.1530 H       
  51 H51           -1.8430     4.2119     7.8676 H       
  52 H52           -3.2345     3.7798     8.8901 H       
  53 H53           -2.1651     2.5053     8.2576 H       
@<TRIPOS>BOND
   1    1   18 2
   2    2    7 2
   3    3    7 2
   4    4   26 2
   5    5   12 1
   6    5   13 1
   7    5   16 1
   8    6   14 1
   9    6   15 1
  10    6   18 am
  11    7   21 1
  12    8   26 am
  13    8   27 1
  14    8   46 1
  15    9   11 1
  16    9   12 1
  17    9   14 1
  18    9   30 1
  19   10   11 1
  20   10   13 1
  21   10   15 1
  22   10   31 1
  23   11   32 1
  24   11   33 1
  25   12   34 1
  26   12   35 1
  27   13   36 1
  28   13   37 1
  29   14   38 1
  30   14   39 1
  31   15   17 2
  32   16   21 ar
  33   16   22 ar
  34   17   19 1
  35   17   40 1
  36   18   20 1
  37   19   20 2
  38   19   41 1
  39   20   42 1
  40   21   23 ar
  41   22   24 ar
  42   22   43 1
  43   23   25 ar
  44   23   44 1
  45   24   25 ar
  46   24   45 1
  47   25   26 1
  48   27   28 1
  49   27   29 1
  50   27   47 1
  51   28   48 1
  52   28   49 1
  53   28   50 1
  54   29   51 1
  55   29   52 1
  56   29   53 1

#	End of record

#	Name: 16194239
#	Creating user name:	landrgr1
#	Creation time:	28. 01. 2015 13:52

#	Modifying user name:	landrgr1
#	Modification time:	28. 01. 2015 13:52

#	Program:	corina 3.48 0006  22.01.2010

@<TRIPOS>MOLECULE
16194239
  45   48    0    0    0
SMALL
NO_CHARGES


@<TRIPOS>ATOM
   1 F1             3.4075     2.2440    -2.9471 F       
   2 O2             0.6926     1.0668     2.8690 O.3     
   3 O3            -3.5041     3.9453    -0.1638 O.2     
   4 O4            -2.0574     2.9070    -1.2950 O.2     
   5 N5             0.0992     1.6454     0.0189 N.3     
   6 N6             2.3026     0.3599    -1.2451 N.3     
   7 N7            -0.4272     1.7790     2.3751 N.2     
   8 N8            -1.4554     2.3451     3.1440 N.pl3   
   9 N9            -2.3473     2.9493     2.2451 N.2     
  10 N10           -2.5190     3.2308    -0.2154 N.pl3   
  11 C11            0.1454     0.1815    -0.1014 C.3     
  12 C12            1.4540     2.2055     0.1214 C.3     
  13 C13            0.9479    -0.2002    -1.3475 C.3     
  14 C14            2.2565     1.8238    -1.1247 C.3     
  15 C15           -0.6905     2.0356     1.1120 C.2     
  16 C16            3.0893    -0.0289    -2.3339 C.ar    
  17 C17           -1.8829     2.7560     1.0340 C.2     
  18 C18            3.6362     0.9326    -3.1776 C.ar    
  19 C19            3.3311    -1.3746    -2.5722 C.ar    
  20 C20           -1.5698     2.3128     4.5409 C.ar    
  21 C21            4.4137     0.5439    -4.2526 C.ar    
  22 C22            4.1093    -1.7557    -3.6487 C.ar    
  23 C23            4.6470    -0.7989    -4.4890 C.ar    
  24 C24           -2.4551     3.1657     5.1862 C.ar    
  25 C25           -0.8020     1.4239     5.2813 C.ar    
  26 C26           -2.5659     3.1312     6.5625 C.ar    
  27 C27           -0.9172     1.3942     6.6573 C.ar    
  28 C28           -1.7958     2.2488     7.2977 C.ar    
  29 H29            0.6232    -0.2412     0.7824 H       
  30 H30           -0.8688    -0.2084    -0.1885 H       
  31 H31            1.3939     3.2912     0.1968 H       
  32 H32            1.9466     1.8058     1.0077 H       
  33 H33            0.4552     0.1995    -2.2339 H       
  34 H34            1.0080    -1.2859    -1.4229 H       
  35 H35            3.2706     2.2137    -1.0377 H       
  36 H36            1.7787     2.2465    -2.0086 H       
  37 H37            2.9117    -2.1233    -1.9165 H       
  38 H38            4.8389     1.2892    -4.9084 H       
  39 H39            4.2977    -2.8029    -3.8338 H       
  40 H40            5.2541    -1.1003    -5.3299 H       
  41 H41           -3.0563     3.8556     4.6127 H       
  42 H42           -0.1157     0.7562     4.7817 H       
  43 H43           -3.2544     3.7943     7.0651 H       
  44 H44           -0.3203     0.7030     7.2338 H       
  45 H45           -1.8836     2.2241     8.3738 H       
@<TRIPOS>BOND
   1    1   18 1
   2    2    7 1
   3    3   10 2
   4    4   10 2
   5    5   11 1
   6    5   12 1
   7    5   15 1
   8    6   13 1
   9    6   14 1
  10    6   16 1
  11    7    8 1
  12    7   15 2
  13    8    9 1
  14    8   20 1
  15    9   17 2
  16   10   17 1
  17   11   13 1
  18   11   29 1
  19   11   30 1
  20   12   14 1
  21   12   31 1
  22   12   32 1
  23   13   33 1
  24   13   34 1
  25   14   35 1
  26   14   36 1
  27   15   17 1
  28   16   18 ar
  29   16   19 ar
  30   18   21 ar
  31   19   22 ar
  32   19   37 1
  33   20   24 ar
  34   20   25 ar
  35   21   23 ar
  36   21   38 1
  37   22   23 ar
  38   22   39 1
  39   23   40 1
  40   24   26 ar
  41   24   41 1
  42   25   27 ar
  43   25   42 1
  44   26   28 ar
  45   26   43 1
  46   27   28 ar
  47   27   44 1
  48   28   45 1

#	End of record

#	Name: 16194223
#	Creating user name:	landrgr1
#	Creation time:	28. 01. 2015 13:52

#	Modifying user name:	landrgr1
#	Modification time:	28. 01. 2015 13:52

#	Program:	corina 3.48 0006  22.01.2010

@<TRIPOS>MOLECULE
16194223
  37   39    0    0    0
SMALL
NO_CHARGES


@<TRIPOS>ATOM
   1 Cl1           -2.9569     9.5858    -2.0712 Cl      
   2 O2            -0.0409     1.4312    -0.0701 O.3     
   3 N3             0.7816     4.2582    -0.7473 N.pl3   
   4 N4             2.0715     0.9896     0.4499 N.2     
   5 C5             1.3322    -0.2602     0.7138 C.3     
   6 C6            -0.0018    -0.0101    -0.0307 C.3     
   7 C7             2.0687    -1.4651     0.1250 C.3     
   8 C8             1.6283     3.2426    -0.3712 C.2     
   9 C9             1.2308     1.8784     0.0081 C.2     
  10 C10           -0.6776     4.1653    -0.8382 C.3     
  11 C11            2.9051     3.7270    -0.4136 C.2     
  12 C12            1.5236     5.3638    -1.0148 C.2     
  13 C13            3.3899    -1.6688     0.8692 C.3     
  14 C14           -1.2492     5.5250    -1.1474 C.ar    
  15 C15            2.8294     5.0638    -0.8239 C.2     
  16 C16           -1.5157     5.8810    -2.4564 C.ar    
  17 C17           -1.5122     6.4136    -0.1216 C.ar    
  18 C18           -2.0399     7.1279    -2.7407 C.ar    
  19 C19           -2.0373     7.6604    -0.4046 C.ar    
  20 C20           -2.2984     8.0196    -1.7149 C.ar    
  21 H21            1.1624    -0.3937     1.7822 H       
  22 H22           -0.8451    -0.4091     0.5328 H       
  23 H23            0.0274    -0.4283    -1.0369 H       
  24 H24            1.4505    -2.3565     0.2317 H       
  25 H25            2.2704    -1.2871    -0.9312 H       
  26 H26           -0.9486     3.4683    -1.6311 H       
  27 H27           -1.0789     3.8098     0.1109 H       
  28 H28            3.8056     3.1806    -0.1746 H       
  29 H29            1.1369     6.3203    -1.3340 H       
  30 H30            3.9146    -2.5272     0.4498 H       
  31 H31            4.0082    -0.7774     0.7626 H       
  32 H32            3.1882    -1.8469     1.9255 H       
  33 H33            3.6635     5.7364    -0.9593 H       
  34 H34           -1.3139     5.1849    -3.2570 H       
  35 H35           -1.3076     6.1333     0.9011 H       
  36 H36           -2.2474     7.4062    -3.7633 H       
  37 H37           -2.2427     8.3545     0.3969 H       
@<TRIPOS>BOND
   1    1   20 1
   2    2    6 1
   3    2    9 1
   4    3    8 1
   5    3   10 1
   6    3   12 1
   7    4    5 1
   8    4    9 2
   9    5    6 1
  10    5    7 1
  11    5   21 1
  12    6   22 1
  13    6   23 1
  14    7   13 1
  15    7   24 1
  16    7   25 1
  17    8    9 1
  18    8   11 2
  19   10   14 1
  20   10   26 1
  21   10   27 1
  22   11   15 1
  23   11   28 1
  24   12   15 2
  25   12   29 1
  26   13   30 1
  27   13   31 1
  28   13   32 1
  29   14   16 ar
  30   14   17 ar
  31   15   33 1
  32   16   18 ar
  33   16   34 1
  34   17   19 ar
  35   17   35 1
  36   18   20 ar
  37   18   36 1
  38   19   20 ar
  39   19   37 1

#	End of record

#	Name: 16194220
#	Creating user name:	landrgr1
#	Creation time:	28. 01. 2015 13:52

#	Modifying user name:	landrgr1
#	Modification time:	28. 01. 2015 13:52

#	Program:	corina 3.48 0006  22.01.2010

@<TRIPOS>MOLECULE
16194220
  69   71    0    0    0
SMALL
NO_CHARGES


@<TRIPOS>ATOM
   1 S1            -0.8293     1.6857     0.2719 S.o2    
   2 O2            -0.8528     0.3138     0.6416 O.2     
   3 O3             0.3721     2.4289     0.1190 O.2     
   4 O4            -4.4512    -0.0980     2.5439 O.2     
   5 O5            -5.7499     4.6404     5.7178 O.2     
   6 N6            -1.6336     1.7949    -1.1715 N.am    
   7 N7            -4.0494     4.5892     4.2999 N.am    
   8 N8            -9.5500    -3.5579     4.5464 N.3     
   9 N9            -6.2956     0.0150     3.7747 N.am    
  10 C10           -1.4921     2.9867    -2.0190 C.3     
  11 C11           -2.8872     3.5330    -2.3385 C.3     
  12 C12           -2.4974     0.6992    -1.6319 C.3     
  13 C13           -3.7374     2.4202    -2.9557 C.3     
  14 C14           -3.8833     1.2664    -1.9549 C.3     
  15 C15           -0.6822     4.0512    -1.2761 C.3     
  16 C16           -1.7942     2.5412     1.4726 C.ar    
  17 C17           -2.8635     1.9186     2.0510 C.ar    
  18 C18           -1.4621     3.8431     1.8226 C.ar    
  19 C19           -3.6306     2.5956     3.0041 C.ar    
  20 C20           -3.2983     3.9140     3.3619 C.ar    
  21 C21           -2.2039     4.5293     2.7587 C.ar    
  22 C22           -4.7863     1.9434     3.6385 C.2     
  23 C23           -8.2733    -3.2157     3.9053 C.3     
  24 C24           -7.9423    -1.7473     4.1797 C.3     
  25 C25          -10.0188    -4.8808     4.1129 C.3     
  26 C26           -6.6126    -1.3909     3.5120 C.3     
  27 C27           -5.5048     2.6456     4.5632 C.2     
  28 C28           -5.1632     0.5541     3.2813 C.2     
  29 C29          -11.4539    -5.0973     4.5974 C.3     
  30 C30           -5.1095     4.0131     4.8929 C.2     
  31 C31          -11.9422    -6.4752     4.1459 C.3     
  32 C32           -9.4385    -3.4923     6.0097 C.3     
  33 C33          -13.3772    -6.6917     4.6304 C.3     
  34 H34           -0.9839     2.7183    -2.9452 H       
  35 H35           -3.3590     3.8849    -1.4211 H       
  36 H36           -2.8015     4.3593    -3.0442 H       
  37 H37           -2.0695     0.2480    -2.5271 H       
  38 H38           -2.5840    -0.0523    -0.8471 H       
  39 H39           -4.7228     2.8128    -3.2067 H       
  40 H40           -3.2525     2.0517    -3.8598 H       
  41 H41           -4.5051     0.4829    -2.3882 H       
  42 H42           -4.3474     1.6358    -1.0405 H       
  43 H43            0.3649     3.7508    -1.2390 H       
  44 H44           -0.7687     5.0039    -1.7986 H       
  45 H45           -1.0660     4.1572    -0.2614 H       
  46 H46           -3.1161     0.9061     1.7727 H       
  47 H47           -0.6138     4.3223     1.3566 H       
  48 H48           -1.9374     5.5416     3.0245 H       
  49 H49           -7.4828    -3.8480     4.3094 H       
  50 H50           -8.3524    -3.3755     2.8300 H       
  51 H51           -8.7328    -1.1150     3.7756 H       
  52 H52           -7.8632    -1.5875     5.2550 H       
  53 H53           -3.8058     5.4970     4.5398 H       
  54 H54           -9.9902    -4.9379     3.0248 H       
  55 H55           -9.3730    -5.6512     4.5343 H       
  56 H56           -6.6917    -1.5507     2.4367 H       
  57 H57           -5.8221    -2.0233     3.9161 H       
  58 H58           -6.3588     2.1943     5.0462 H       
  59 H59          -11.4825    -5.0403     5.6855 H       
  60 H60          -12.0997    -4.3269     4.1761 H       
  61 H61           -6.9007     0.5579     4.3038 H       
  62 H62          -11.9135    -6.5323     3.0578 H       
  63 H63          -11.2963    -7.2456     4.5672 H       
  64 H64           -9.1574    -2.4823     6.3078 H       
  65 H65          -10.3975    -3.7501     6.4591 H       
  66 H66           -8.6778    -4.1959     6.3480 H       
  67 H67          -13.4058    -6.6347     5.7185 H       
  68 H68          -14.0230    -5.9213     4.2090 H       
  69 H69          -13.7251    -7.6733     4.3087 H       
@<TRIPOS>BOND
   1    1    2 2
   2    1    3 2
   3    1    6 am
   4    1   16 1
   5    4   28 2
   6    5   30 2
   7    6   10 1
   8    6   12 1
   9    7   20 1
  10    7   30 am
  11    7   53 1
  12    8   23 1
  13    8   25 1
  14    8   32 1
  15    9   26 1
  16    9   28 am
  17    9   61 1
  18   10   11 1
  19   10   15 1
  20   10   34 1
  21   11   13 1
  22   11   35 1
  23   11   36 1
  24   12   14 1
  25   12   37 1
  26   12   38 1
  27   13   14 1
  28   13   39 1
  29   13   40 1
  30   14   41 1
  31   14   42 1
  32   15   43 1
  33   15   44 1
  34   15   45 1
  35   16   17 ar
  36   16   18 ar
  37   17   19 ar
  38   17   46 1
  39   18   21 ar
  40   18   47 1
  41   19   20 ar
  42   19   22 1
  43   20   21 ar
  44   21   48 1
  45   22   27 2
  46   22   28 1
  47   23   24 1
  48   23   49 1
  49   23   50 1
  50   24   26 1
  51   24   51 1
  52   24   52 1
  53   25   29 1
  54   25   54 1
  55   25   55 1
  56   26   56 1
  57   26   57 1
  58   27   30 1
  59   27   58 1
  60   29   31 1
  61   29   59 1
  62   29   60 1
  63   31   33 1
  64   31   62 1
  65   31   63 1
  66   32   64 1
  67   32   65 1
  68   32   66 1
  69   33   67 1
  70   33   68 1
  71   33   69 1

#	End of record

#	Name: 16194154
#	Creating user name:	landrgr1
#	Creation time:	28. 01. 2015 13:52

#	Modifying user name:	landrgr1
#	Modification time:	28. 01. 2015 13:52

#	Program:	corina 3.48 0006  22.01.2010

@<TRIPOS>MOLECULE
16194154
  62   65    0    0    0
SMALL
NO_CHARGES


@<TRIPOS>ATOM
   1 S1             0.2395     1.5969     0.0625 S.o2    
   2 F2            -9.1803    10.6824    -0.2867 F       
   3 F3            -9.1966     8.4121    -0.0321 F       
   4 F4           -10.5784     9.4002    -1.5597 F       
   5 O5            -1.1961     5.2836    -3.6928 O.2     
   6 O6             0.2846     0.1781     0.1274 O.2     
   7 O7             1.4000     2.4063    -0.0690 O.2     
   8 O8            -0.2757     4.3470     1.0294 O.2     
   9 O9            -2.4078     3.3542     4.7949 O.2     
  10 N10           -0.7420     1.9755    -1.2164 N.am    
  11 N11           -2.6730     6.2815    -2.3718 N.am    
  12 N12           -4.8154     8.0631    -2.3343 N.3     
  13 N13           -1.7148     1.6731     3.5321 N.am    
  14 N14           -1.3509     3.9063     2.9290 N.am    
  15 C15           -1.9986     3.9443    -1.9231 C.3     
  16 C16           -3.0115     2.9926    -2.5638 C.3     
  17 C17           -0.6216     3.2737    -1.8939 C.3     
  18 C18           -3.1125     1.7084    -1.7302 C.3     
  19 C19           -1.7457     1.0173    -1.6991 C.3     
  20 C20           -1.9263     5.2171    -2.7267 C.2     
  21 C21           -2.5323     7.5687    -3.0694 C.3     
  22 C22           -3.6545     6.1850    -1.2807 C.3     
  23 C23           -3.9239     8.0427    -3.5017 C.3     
  24 C24           -4.9995     6.7165    -1.7874 C.3     
  25 C25           -0.5799     2.1361     1.5263 C.2     
  26 C26           -6.0450     8.6436    -2.6536 C.ar    
  27 C27           -1.0818     1.2372     2.3999 C.2     
  28 C28           -0.7205     3.5175     1.8023 C.2     
  29 C29           -7.0332     8.7590    -1.6838 C.ar    
  30 C30           -6.2805     9.1120    -3.9397 C.ar    
  31 C31           -0.9449    -0.2390     2.1298 C.3     
  32 C32           -8.2474     9.3338    -2.0027 C.ar    
  33 C33           -7.4974     9.6860    -4.2519 C.ar    
  34 C34           -1.8417     2.9888     3.7828 C.2     
  35 C35           -8.4807     9.7941    -3.2859 C.ar    
  36 C36           -9.3199     9.4594    -0.9515 C.3     
  37 H37           -2.3095     4.1741    -0.9040 H       
  38 H38           -3.9870     3.4768    -2.6082 H       
  39 H39           -2.6852     2.7405    -3.5728 H       
  40 H40            0.0811     3.9056    -1.3506 H       
  41 H41           -0.2671     3.1223    -2.9135 H       
  42 H42           -3.4135     1.9579    -0.7127 H       
  43 H43           -3.8515     1.0426    -2.1758 H       
  44 H44           -1.4811     0.6856    -2.7032 H       
  45 H45           -1.7851     0.1598    -1.0273 H       
  46 H46           -2.0879     8.3027    -2.3972 H       
  47 H47           -1.8994     7.4419    -3.9477 H       
  48 H48           -3.7633     5.1438    -0.9771 H       
  49 H49           -3.3201     6.7834    -0.4333 H       
  50 H50           -4.3256     7.3643    -4.2544 H       
  51 H51           -3.8487     9.0467    -3.9195 H       
  52 H52           -5.7062     6.7541    -0.9584 H       
  53 H53           -5.3854     6.0576    -2.5653 H       
  54 H54           -6.8519     8.3991    -0.6818 H       
  55 H55           -5.5129     9.0279    -4.6947 H       
  56 H56           -2.0788     1.0274     4.1578 H       
  57 H57           -1.4076    -0.8013     2.9409 H       
  58 H58           -1.4396    -0.4838     1.1898 H       
  59 H59            0.1113    -0.4999     2.0631 H       
  60 H60           -1.4509     4.8510     3.1252 H       
  61 H61           -7.6811    10.0508    -5.2517 H       
  62 H62           -9.4316    10.2427    -3.5328 H       
@<TRIPOS>BOND
   1    1    6 2
   2    1    7 2
   3    1   10 am
   4    1   25 1
   5    2   36 1
   6    3   36 1
   7    4   36 1
   8    5   20 2
   9    8   28 2
  10    9   34 2
  11   10   17 1
  12   10   19 1
  13   11   20 am
  14   11   21 1
  15   11   22 1
  16   12   23 1
  17   12   24 1
  18   12   26 1
  19   13   27 1
  20   13   34 am
  21   13   56 1
  22   14   28 am
  23   14   34 am
  24   14   60 1
  25   15   16 1
  26   15   17 1
  27   15   20 1
  28   15   37 1
  29   16   18 1
  30   16   38 1
  31   16   39 1
  32   17   40 1
  33   17   41 1
  34   18   19 1
  35   18   42 1
  36   18   43 1
  37   19   44 1
  38   19   45 1
  39   21   23 1
  40   21   46 1
  41   21   47 1
  42   22   24 1
  43   22   48 1
  44   22   49 1
  45   23   50 1
  46   23   51 1
  47   24   52 1
  48   24   53 1
  49   25   27 2
  50   25   28 1
  51   26   29 ar
  52   26   30 ar
  53   27   31 1
  54   29   32 ar
  55   29   54 1
  56   30   33 ar
  57   30   55 1
  58   31   57 1
  59   31   58 1
  60   31   59 1
  61   32   35 ar
  62   32   36 1
  63   33   35 ar
  64   33   61 1
  65   35   62 1

#	End of record

#	Name: 16194104
#	Creating user name:	landrgr1
#	Creation time:	28. 01. 2015 13:52

#	Modifying user name:	landrgr1
#	Modification time:	28. 01. 2015 13:52

#	Program:	corina 3.48 0006  22.01.2010

@<TRIPOS>MOLECULE
16194104
  51   54    0    0    0
SMALL
NO_CHARGES


@<TRIPOS>ATOM
   1 S1             5.1031    -5.5164    -8.4986 S.2     
   2 O2             1.5509     1.7009     1.0998 O.3     
   3 N3             5.4481    -1.7070    -5.1266 N.3     
   4 N4             6.1895    -3.5517    -7.0792 N.am    
   5 N5             3.3717     0.2116    -0.4346 N.3     
   6 N6             3.7102    -1.4151    -3.5665 N.ar    
   7 N7             3.2237    -0.9658    -2.4671 N.ar    
   8 N8             7.6018    -5.3309    -7.6170 N.am    
   9 C9             4.4015    -2.4500    -5.8412 C.3     
  10 C10            6.6375    -2.5405    -4.9066 C.3     
  11 C11            4.9136    -2.8363    -7.2329 C.3     
  12 C12            7.2413    -2.9305    -6.2600 C.3     
  13 C13            4.9654    -1.1978    -3.9225 C.ar    
  14 C14            1.9633    -0.1980    -0.3347 C.3     
  15 C15            3.4981     1.6725    -0.3288 C.3     
  16 C16            6.3893    -4.7449    -7.6731 C.2     
  17 C17            3.9449    -0.2551    -1.6160 C.ar    
  18 C18            1.3910     0.2831     1.0013 C.3     
  19 C19            2.9105     2.1348     1.0072 C.3     
  20 C20            5.8057    -0.4576    -3.0892 C.ar    
  21 C21            5.2813     0.0268    -1.9040 C.ar    
  22 C22            8.6673    -4.8058    -8.3558 C.ar    
  23 C23            9.9444    -5.3301    -8.2044 C.ar    
  24 C24            8.4493    -3.7627    -9.2465 C.ar    
  25 C25           10.9942    -4.8094    -8.9352 C.ar    
  26 C26            9.5034    -3.2464    -9.9743 C.ar    
  27 C27           10.7748    -3.7670    -9.8170 C.ar    
  28 H28            4.1500    -3.3518    -5.2829 H       
  29 H29            3.5146    -1.8241    -5.9407 H       
  30 H30            7.3724    -1.9803    -4.3284 H       
  31 H31            6.3549    -3.4410    -4.3614 H       
  32 H32            5.0676    -1.9369    -7.8290 H       
  33 H33            4.1873    -3.4843    -7.7234 H       
  34 H34            8.0539    -3.6408    -6.1074 H       
  35 H35            7.6190    -2.0402    -6.7627 H       
  36 H36            1.3966     0.2447    -1.1539 H       
  37 H37            1.8954    -1.2844    -0.3896 H       
  38 H38            4.5506     1.9513    -0.3795 H       
  39 H39            2.9559     2.1450    -1.1479 H       
  40 H40            1.9228    -0.2009     1.8205 H       
  41 H41            0.3318     0.0316     1.0553 H       
  42 H42            2.9502     3.2225     1.0653 H       
  43 H43            3.4865     1.7046     1.8265 H       
  44 H44            6.8336    -0.2685    -3.3614 H       
  45 H45            5.8874     0.6056    -1.2227 H       
  46 H46            7.7355    -6.1168    -7.0643 H       
  47 H47           10.1164    -6.1440    -7.5156 H       
  48 H48            7.4564    -3.3560    -9.3700 H       
  49 H49           11.9876    -5.2164    -8.8176 H       
  50 H50            9.3345    -2.4353   -10.6671 H       
  51 H51           11.5974    -3.3615   -10.3874 H       
@<TRIPOS>BOND
   1    1   16 2
   2    2   18 1
   3    2   19 1
   4    3    9 1
   5    3   10 1
   6    3   13 1
   7    4   11 1
   8    4   12 1
   9    4   16 am
  10    5   14 1
  11    5   15 1
  12    5   17 1
  13    6    7 ar
  14    6   13 ar
  15    7   17 ar
  16    8   16 am
  17    8   22 1
  18    8   46 1
  19    9   11 1
  20    9   28 1
  21    9   29 1
  22   10   12 1
  23   10   30 1
  24   10   31 1
  25   11   32 1
  26   11   33 1
  27   12   34 1
  28   12   35 1
  29   13   20 ar
  30   14   18 1
  31   14   36 1
  32   14   37 1
  33   15   19 1
  34   15   38 1
  35   15   39 1
  36   17   21 ar
  37   18   40 1
  38   18   41 1
  39   19   42 1
  40   19   43 1
  41   20   21 ar
  42   20   44 1
  43   21   45 1
  44   22   23 ar
  45   22   24 ar
  46   23   25 ar
  47   23   47 1
  48   24   26 ar
  49   24   48 1
  50   25   27 ar
  51   25   49 1
  52   26   27 ar
  53   26   50 1
  54   27   51 1

#	End of record

#	Name: 16194073
#	Creating user name:	landrgr1
#	Creation time:	28. 01. 2015 13:52

#	Modifying user name:	landrgr1
#	Modification time:	28. 01. 2015 13:52

#	Program:	corina 3.48 0006  22.01.2010

@<TRIPOS>MOLECULE
16194073
  48   51    0    0    0
SMALL
NO_CHARGES


@<TRIPOS>ATOM
   1 S1            -0.0172     1.4168     0.0098 S.o2    
   2 O2             0.0021    -0.0041     0.0020 O.2     
   3 O3             1.1617     2.2101     0.0028 O.2     
   4 O4            -3.2880     0.7652    -8.2163 O.3     
   5 N5            -0.9002     1.8797    -1.3124 N.am    
   6 N6            -1.5865     2.2401    -3.9890 N.3     
   7 N7            -0.6821     4.2076     0.9010 N.ar    
   8 C8            -0.7171     3.2090    -1.9147 C.3     
   9 C9            -1.8841     0.9703    -1.9192 C.3     
  10 C10           -0.4894     3.0341    -3.4200 C.3     
  11 C11           -1.6078     0.8885    -3.4243 C.3     
  12 C12           -1.5024     2.1966    -5.3825 C.ar    
  13 C13           -0.9297     1.8941     1.4396 C.ar    
  14 C14           -1.1531     3.2552     1.7122 C.ar    
  15 C15           -2.4495     1.4938    -6.1142 C.ar    
  16 C16           -0.4736     2.8617    -6.0386 C.ar    
  17 C17           -1.4211     0.9469     2.2839 C.ar    
  18 C18           -1.8901     3.6143     2.8677 C.ar    
  19 C19           -2.3626     1.4529    -7.4970 C.ar    
  20 C20           -2.1454     1.3024     3.4201 C.ar    
  21 C21           -0.3907     2.8185    -7.4166 C.ar    
  22 C22           -2.3819     2.6099     3.7170 C.ar    
  23 C23           -1.3298     2.1142    -8.1464 C.ar    
  24 C24           -2.1127     4.9775     3.1389 C.ar    
  25 C25           -0.8871     5.4781     1.1506 C.ar    
  26 C26           -1.6040     5.8991     2.2687 C.ar    
  27 C27           -3.1367     0.7659    -9.6373 C.3     
  28 H28           -1.6088     3.8130    -1.7470 H       
  29 H29            0.1487     3.6974    -1.4677 H       
  30 H30           -1.7894    -0.0206    -1.4752 H       
  31 H31           -2.8901     1.3550    -1.7520 H       
  32 H32            0.4573     2.5217    -3.5911 H       
  33 H33           -0.4643     4.0141    -3.8966 H       
  34 H34           -2.3955     0.3067    -3.9030 H       
  35 H35           -0.6447     0.4076    -3.5954 H       
  36 H36           -3.2524     0.9794    -5.6071 H       
  37 H37            0.2612     3.4130    -5.4707 H       
  38 H38           -1.2468    -0.0973     2.0701 H       
  39 H39           -2.5249     0.5306     4.0733 H       
  40 H40            0.4093     3.3363    -7.9249 H       
  41 H41           -2.9445     2.8730     4.6005 H       
  42 H42           -1.2622     2.0823    -9.2238 H       
  43 H43           -2.6706     5.2861     4.0106 H       
  44 H44           -0.4904     6.2180     0.4712 H       
  45 H45           -1.7567     6.9532     2.4474 H       
  46 H46           -3.1806     1.7904   -10.0069 H       
  47 H47           -2.1749     0.3256    -9.9004 H       
  48 H48           -3.9391     0.1822   -10.0884 H       
@<TRIPOS>BOND
   1    1    2 2
   2    1    3 2
   3    1    5 am
   4    1   13 1
   5    4   19 1
   6    4   27 1
   7    5    8 1
   8    5    9 1
   9    6   10 1
  10    6   11 1
  11    6   12 1
  12    7   14 ar
  13    7   25 ar
  14    8   10 1
  15    8   28 1
  16    8   29 1
  17    9   11 1
  18    9   30 1
  19    9   31 1
  20   10   32 1
  21   10   33 1
  22   11   34 1
  23   11   35 1
  24   12   15 ar
  25   12   16 ar
  26   13   14 ar
  27   13   17 ar
  28   14   18 ar
  29   15   19 ar
  30   15   36 1
  31   16   21 ar
  32   16   37 1
  33   17   20 ar
  34   17   38 1
  35   18   22 ar
  36   18   24 ar
  37   19   23 ar
  38   20   22 ar
  39   20   39 1
  40   21   23 ar
  41   21   40 1
  42   22   41 1
  43   23   42 1
  44   24   26 ar
  45   24   43 1
  46   25   26 ar
  47   25   44 1
  48   26   45 1
  49   27   46 1
  50   27   47 1
  51   27   48 1

#	End of record

#	Name: 16194069
#	Creating user name:	landrgr1
#	Creation time:	28. 01. 2015 13:52

#	Modifying user name:	landrgr1
#	Modification time:	28. 01. 2015 13:52

#	Program:	corina 3.48 0006  22.01.2010

@<TRIPOS>MOLECULE
16194069
  45   48    0    0    0
SMALL
NO_CHARGES


@<TRIPOS>ATOM
   1 Cl1           -9.1668     2.0205    -1.9460 Cl      
   2 O2            -1.3300    -1.0057     2.4372 O.3     
   3 O3            -4.0886    -2.6431    -1.4148 O.3     
   4 O4            -1.0481    -0.4943    -2.1829 O.2     
   5 O5            -4.1490    -2.7598     0.8029 O.2     
   6 N6            -1.1968    -0.7317     0.0096 N.am    
   7 N7            -0.6517    -1.2079     1.2108 N.pl3   
   8 N8             0.6229    -1.5697    -1.2135 N.am    
   9 N9            -3.9424     1.5430     0.1045 N.pl3   
  10 N10           -2.5763     1.2428     0.1253 N.2     
  11 C11           -2.4184    -0.0530     0.0249 C.2     
  12 C12           -3.7012    -0.6473    -0.0661 C.2     
  13 C13           -4.6344     0.3892    -0.0125 C.2     
  14 C14            0.5728    -1.8856     1.1801 C.ar    
  15 C15            1.2154    -2.0674    -0.0459 C.ar    
  16 C16           -0.5525    -0.9172    -1.1562 C.2     
  17 C17           -6.1039     0.2501    -0.0724 C.ar    
  18 C18            1.1462    -2.3724     2.3418 C.ar    
  19 C19            2.4246    -2.7399    -0.0960 C.ar    
  20 C20           -3.9932    -2.0803    -0.1933 C.2     
  21 C21            2.3574    -3.0392     2.2834 C.ar    
  22 C22           -6.8558     1.1001    -0.8853 C.ar    
  23 C23           -6.7462    -0.7359     0.6794 C.ar    
  24 C24            2.9924    -3.2234     1.0694 C.ar    
  25 C25           -8.2290     0.9645    -0.9365 C.ar    
  26 C26           -8.1185    -0.8608     0.6193 C.ar    
  27 C27           -8.8594    -0.0118    -0.1838 C.ar    
  28 C28           -4.3796    -4.0647    -1.4647 C.3     
  29 C29           -4.4491    -4.5201    -2.9237 C.3     
  30 H30            1.0647    -1.6926    -2.0683 H       
  31 H31           -4.3282     2.4307     0.1678 H       
  32 H32            0.6502    -2.2321     3.2908 H       
  33 H33            2.9233    -2.8869    -1.0426 H       
  34 H34            2.8067    -3.4195     3.1889 H       
  35 H35           -6.3648     1.8621    -1.4724 H       
  36 H36           -6.1695    -1.3997     1.3065 H       
  37 H37            3.9357    -3.7480     1.0304 H       
  38 H38           -0.8710    -1.3718     3.2056 H       
  39 H39           -8.6161    -1.6231     1.2004 H       
  40 H40           -9.9337    -0.1138    -0.2268 H       
  41 H41           -3.5924    -4.6150    -0.9494 H       
  42 H42           -5.3358    -4.2572    -0.9781 H       
  43 H43           -4.6675    -5.5873    -2.9612 H       
  44 H44           -5.2363    -3.9698    -3.4390 H       
  45 H45           -3.4929    -4.3276    -3.4104 H       
@<TRIPOS>BOND
   1    1   25 1
   2    2    7 1
   3    2   38 1
   4    3   20 1
   5    3   28 1
   6    4   16 2
   7    5   20 2
   8    6    7 1
   9    6   11 1
  10    6   16 am
  11    7   14 1
  12    8   15 1
  13    8   16 am
  14    8   30 1
  15    9   10 1
  16    9   13 1
  17    9   31 1
  18   10   11 2
  19   11   12 1
  20   12   13 2
  21   12   20 1
  22   13   17 1
  23   14   15 ar
  24   14   18 ar
  25   15   19 ar
  26   17   22 ar
  27   17   23 ar
  28   18   21 ar
  29   18   32 1
  30   19   24 ar
  31   19   33 1
  32   21   24 ar
  33   21   34 1
  34   22   25 ar
  35   22   35 1
  36   23   26 ar
  37   23   36 1
  38   24   37 1
  39   25   27 ar
  40   26   27 ar
  41   26   39 1
  42   27   40 1
  43   28   29 1
  44   28   41 1
  45   28   42 1
  46   29   43 1
  47   29   44 1
  48   29   45 1

#	End of record

#	Name: 16194037
#	Creating user name:	landrgr1
#	Creation time:	28. 01. 2015 13:52

#	Modifying user name:	landrgr1
#	Modification time:	28. 01. 2015 13:52

#	Program:	corina 3.48 0006  22.01.2010

@<TRIPOS>MOLECULE
16194037
  37   39    0    0    0
SMALL
NO_CHARGES


@<TRIPOS>ATOM
   1 S1            -6.1880    -0.4991    -1.4353 S.2     
   2 O2            -2.9419     2.9541    -2.5642 O.2     
   3 N3            -0.0179     1.4678     0.0101 N.3     
   4 N4            -3.6799    -0.3651    -0.5989 N.am    
   5 N5            -4.3873     1.3552    -2.0163 N.am    
   6 C6             0.0021    -0.0041     0.0020 C.3     
   7 C7             1.3462     2.0129     0.0000 C.3     
   8 C8            -0.7922     1.9681    -1.1305 C.3     
   9 C9            -1.3986    -0.5080     0.3515 C.3     
  10 C10           -2.1479     1.3169    -1.1759 C.2     
  11 C11           -2.4251     0.1836    -0.5072 C.2     
  12 C12            1.2856     3.5187     0.0087 C.ar    
  13 C13            2.0993     1.5257     1.2395 C.3     
  14 C14           -3.1682     1.9243    -1.9548 C.2     
  15 C15           -4.6356     0.2167    -1.3427 C.2     
  16 C16            2.1667     4.2503    -0.7654 C.ar    
  17 C17            0.3451     4.1681     0.7863 C.ar    
  18 C18            2.1111     5.6315    -0.7574 C.ar    
  19 C19            0.2895     5.5493     0.7943 C.ar    
  20 C20            1.1741     6.2811     0.0243 C.ar    
  21 H21            0.2844    -0.3618    -0.9881 H       
  22 H22            0.7171    -0.3655     0.7411 H       
  23 H23            1.8657     1.6753    -0.8968 H       
  24 H24           -0.9147     3.0471    -1.0363 H       
  25 H25           -0.2562     1.7471    -2.0535 H       
  26 H26           -1.4492    -1.5833     0.1804 H       
  27 H27           -1.6061    -0.3004     1.4012 H       
  28 H28            2.1431     0.4366     1.2333 H       
  29 H29            3.1115     1.9301     1.2320 H       
  30 H30            1.5798     1.8632     2.1363 H       
  31 H31           -3.8795    -1.1848    -0.1200 H       
  32 H32           -5.0874     1.7665    -2.5469 H       
  33 H33            2.8988     3.7429    -1.3761 H       
  34 H34           -0.3464     3.5963     1.3874 H       
  35 H35            2.8000     6.2032    -1.3616 H       
  36 H36           -0.4455     6.0566     1.4016 H       
  37 H37            1.1309     7.3602     0.0308 H       
@<TRIPOS>BOND
   1    1   15 2
   2    2   14 2
   3    3    6 1
   4    3    7 1
   5    3    8 1
   6    4   11 1
   7    4   15 am
   8    4   31 1
   9    5   14 am
  10    5   15 am
  11    5   32 1
  12    6    9 1
  13    6   21 1
  14    6   22 1
  15    7   12 1
  16    7   13 1
  17    7   23 1
  18    8   10 1
  19    8   24 1
  20    8   25 1
  21    9   11 1
  22    9   26 1
  23    9   27 1
  24   10   11 2
  25   10   14 1
  26   12   16 ar
  27   12   17 ar
  28   13   28 1
  29   13   29 1
  30   13   30 1
  31   16   18 ar
  32   16   33 1
  33   17   19 ar
  34   17   34 1
  35   18   20 ar
  36   18   35 1
  37   19   20 ar
  38   19   36 1
  39   20   37 1

#	End of record

#	Name: 16194035
#	Creating user name:	landrgr1
#	Creation time:	28. 01. 2015 13:52

#	Modifying user name:	landrgr1
#	Modification time:	28. 01. 2015 13:52

#	Program:	corina 3.48 0006  22.01.2010

@<TRIPOS>MOLECULE
16194035
  44   46    0    0    0
SMALL
NO_CHARGES


@<TRIPOS>ATOM
   1 S1            -0.0172     1.4168     0.0098 S.o2    
   2 O2             0.0021    -0.0041     0.0020 O.2     
   3 O3             1.1617     2.2101     0.0028 O.2     
   4 O4            -4.5348     4.8102    -2.4028 O.2     
   5 O5            -1.3468     5.2972     1.8949 O.3     
   6 N6            -0.9002     1.8797    -1.3124 N.am    
   7 N7            -5.4074     3.0991    -3.5131 N.am    
   8 N8            -0.8744     4.4247     1.1941 N.2     
   9 N9            -1.9500     4.9267     2.8820 N.2     
  10 C10           -3.0535     3.0078    -2.7585 C.3     
  11 C11           -2.0742     3.9057    -1.9991 C.3     
  12 C12           -3.2322     1.6841    -2.0036 C.3     
  13 C13           -0.7128     3.2090    -1.9097 C.3     
  14 C14           -1.8816     0.9668    -1.9142 C.3     
  15 C15           -4.3843     3.7046    -2.8780 C.2     
  16 C16           -0.9297     1.8941     1.4396 C.ar    
  17 C17           -6.7012     3.7765    -3.6293 C.3     
  18 C18           -1.1557     3.2565     1.7163 C.ar    
  19 C19           -1.4210     0.9533     2.2834 C.ar    
  20 C20           -7.6804     2.8790    -4.3885 C.3     
  21 C21           -1.9295     3.6176     2.9304 C.ar    
  22 C22           -2.1516     1.2940     3.4288 C.ar    
  23 C23           -2.4081     2.5840     3.7588 C.ar    
  24 C24           -9.0316     3.5865    -4.5099 C.3     
  25 H25           -2.6605     2.8026    -3.7543 H       
  26 H26           -1.9672     4.8542    -2.5254 H       
  27 H27           -2.4527     4.0879    -0.9933 H       
  28 H28           -3.6006     1.8858    -0.9977 H       
  29 H29           -3.9479     1.0562    -2.5344 H       
  30 H30           -0.0409     3.7984    -1.2859 H       
  31 H31           -0.2896     3.1043    -2.9087 H       
  32 H32           -1.5517     0.6830    -2.9136 H       
  33 H33           -1.9810     0.0764    -1.2934 H       
  34 H34           -5.2870     2.2149    -3.8932 H       
  35 H35           -7.0942     3.9825    -2.6337 H       
  36 H36           -6.5731     4.7140    -4.1704 H       
  37 H37           -1.2445    -0.0897     2.0654 H       
  38 H38           -7.2874     2.6731    -5.3841 H       
  39 H39           -7.8084     1.9415    -3.8474 H       
  40 H40           -2.5213     0.5061     4.0682 H       
  41 H41           -2.9737     2.8167     4.6490 H       
  42 H42           -9.4246     3.7924    -3.5142 H       
  43 H43           -8.9036     4.5239    -5.0510 H       
  44 H44           -9.7292     2.9471    -5.0508 H       
@<TRIPOS>BOND
   1    1    2 2
   2    1    3 2
   3    1    6 am
   4    1   16 1
   5    4   15 2
   6    5    8 1
   7    5    9 1
   8    6   13 1
   9    6   14 1
  10    7   15 am
  11    7   17 1
  12    7   34 1
  13    8   18 2
  14    9   21 2
  15   10   11 1
  16   10   12 1
  17   10   15 1
  18   10   25 1
  19   11   13 1
  20   11   26 1
  21   11   27 1
  22   12   14 1
  23   12   28 1
  24   12   29 1
  25   13   30 1
  26   13   31 1
  27   14   32 1
  28   14   33 1
  29   16   18 ar
  30   16   19 ar
  31   17   20 1
  32   17   35 1
  33   17   36 1
  34   18   21 ar
  35   19   22 ar
  36   19   37 1
  37   20   24 1
  38   20   38 1
  39   20   39 1
  40   21   23 ar
  41   22   23 ar
  42   22   40 1
  43   23   41 1
  44   24   42 1
  45   24   43 1
  46   24   44 1

#	End of record

#	Name: 16193998
#	Creating user name:	landrgr1
#	Creation time:	28. 01. 2015 13:52

#	Modifying user name:	landrgr1
#	Modification time:	28. 01. 2015 13:52

#	Program:	corina 3.48 0006  22.01.2010

@<TRIPOS>MOLECULE
16193998
  32   33    0    0    0
SMALL
NO_CHARGES


@<TRIPOS>ATOM
   1 S1            -0.0195     1.8197     0.0107 S.3     
   2 S2            -0.8733     3.3179     3.9061 S.3     
   3 O3            -2.8236    -4.8042     0.7138 O.3     
   4 O4            -2.3539     0.1754    -0.0726 O.2     
   5 O5            -0.7533     5.7008     1.8842 O.2     
   6 O6            -0.3261     4.5576     0.1633 O.2     
   7 N7            -1.5684    -1.7627     0.6680 N.am    
   8 N8            -0.5481     4.6210     1.3592 N.pl3   
   9 C9             0.0000     0.0071    -0.0574 C.3     
  10 C10           -1.3921    -0.5195     0.1783 C.2     
  11 C11           -2.9218    -2.2747     0.8972 C.3     
  12 C12            0.4905    -0.4463    -1.4339 C.3     
  13 C13           -0.3581     2.1489     1.7083 C.2     
  14 C14           -2.8426    -3.6769     1.4435 C.2     
  15 C15           -0.5688     3.3850     2.1753 C.2     
  16 C16           -0.4276     1.1462     2.6655 C.2     
  17 C17           -2.7795    -4.0117     2.7448 C.2     
  18 C18           -0.6934     1.5685     3.9026 C.2     
  19 C19           -2.7189    -5.4231     2.8021 C.2     
  20 C20           -2.7487    -5.8663     1.5324 C.2     
  21 H21            0.6693    -0.3782     0.7118 H       
  22 H22           -3.4361    -1.6341     1.6136 H       
  23 H23           -3.4717    -2.2819    -0.0439 H       
  24 H24            1.5281    -0.1407    -1.5687 H       
  25 H25            0.4191    -1.5315    -1.5058 H       
  26 H26           -0.1262     0.0105    -2.2080 H       
  27 H27           -0.7992    -2.3185     0.8687 H       
  28 H28           -0.2775     0.1036     2.4271 H       
  29 H29           -2.7752    -3.3327     3.5846 H       
  30 H30           -0.7841     0.9325     4.7707 H       
  31 H31           -2.6598    -6.0291     3.6941 H       
  32 H32           -2.7176    -6.9008     1.2237 H       
@<TRIPOS>BOND
   1    1    9 1
   2    1   13 1
   3    2   15 1
   4    2   18 1
   5    3   14 1
   6    3   20 1
   7    4   10 2
   8    5    8 2
   9    6    8 2
  10    7   10 am
  11    7   11 1
  12    7   27 1
  13    8   15 1
  14    9   10 1
  15    9   12 1
  16    9   21 1
  17   11   14 1
  18   11   22 1
  19   11   23 1
  20   12   24 1
  21   12   25 1
  22   12   26 1
  23   13   15 2
  24   13   16 1
  25   14   17 2
  26   16   18 2
  27   16   28 1
  28   17   19 1
  29   17   29 1
  30   18   30 1
  31   19   20 2
  32   19   31 1
  33   20   32 1

#	End of record

#	Name: 16193930
#	Creating user name:	landrgr1
#	Creation time:	28. 01. 2015 13:52

#	Modifying user name:	landrgr1
#	Modification time:	28. 01. 2015 13:52

#	Program:	corina 3.48 0006  22.01.2010

@<TRIPOS>MOLECULE
16193930
  54   57    0    0    0
SMALL
NO_CHARGES


@<TRIPOS>ATOM
   1 Cl1           -0.0018    -3.0883    -5.0483 Cl      
   2 S2            -0.0218     1.7577     0.0117 S.3     
   3 O3             5.9459     9.7197     1.1188 O.3     
   4 O4             1.0374     4.3441     0.0155 O.2     
   5 N5             5.1860     7.2621    -0.0085 N.3     
   6 N6             0.0389    -2.7582     0.0102 N.ar    
   7 N7             3.2396     4.0757    -0.0070 N.am    
   8 C8            -0.3776    -0.8268     3.6538 C.3     
   9 C9             0.0303     0.0612     2.4800 C.3     
  10 C10            0.4792    -2.0977     3.6174 C.3     
  11 C11            0.0232    -0.7231     1.1946 C.ar    
  12 C12            0.0450    -2.9384     2.4192 C.3     
  13 C13            0.0379    -2.1059     1.1608 C.ar    
  14 C14            0.0021    -0.0041     0.0020 C.ar    
  15 C15            6.6039     7.5774     0.2180 C.3     
  16 C16            4.3389     7.9207     0.9966 C.3     
  17 C17            4.9639     5.8100    -0.0141 C.3     
  18 C18           -0.0002    -0.7207    -1.2161 C.ar    
  19 C19            6.7999     9.0946     0.1569 C.3     
  20 C20            4.5576     9.4344     0.9276 C.3     
  21 C21            0.0201    -2.1350    -1.1695 C.ar    
  22 C22            3.4610     5.5239    -0.0013 C.3     
  23 C23           -0.0214    -0.0652    -2.4543 C.ar    
  24 C24            1.7562     2.0963    -0.0035 C.3     
  25 C25            0.0196    -2.8569    -2.3752 C.ar    
  26 C26            1.9840     3.5860     0.0024 C.2     
  27 C27           -0.0217    -0.7965    -3.6039 C.ar    
  28 C28           -0.0011    -2.1896    -3.5630 C.ar    
  29 H29           -0.2090    -0.2969     4.5912 H       
  30 H30           -1.4313    -1.0916     3.5653 H       
  31 H31           -0.6701     0.8923     2.3977 H       
  32 H32            1.0322     0.4525     2.6566 H       
  33 H33            1.5305    -1.8287     3.5153 H       
  34 H34            0.3328    -2.6654     4.5363 H       
  35 H35            0.7370    -3.7714     2.2951 H       
  36 H36           -0.9571    -3.3282     2.5979 H       
  37 H37            6.9062     7.2106     1.1990 H       
  38 H38            7.2103     7.1008    -0.5522 H       
  39 H39            3.2919     7.6947     0.7947 H       
  40 H40            4.6049     7.5594     1.9899 H       
  41 H41            5.4084     5.3780    -0.9107 H       
  42 H42            5.4254     5.3685     0.8691 H       
  43 H43            6.5486     9.4541    -0.8409 H       
  44 H44            7.8388     9.3367     0.3808 H       
  45 H45            3.9748     9.9223     1.7089 H       
  46 H46            4.2411     9.8038    -0.0478 H       
  47 H47            2.9995     5.9654    -0.8846 H       
  48 H48            3.0165     5.9559     0.8953 H       
  49 H49           -0.0378     1.0138    -2.4972 H       
  50 H50            3.9966     3.4694    -0.0175 H       
  51 H51            2.2177     1.6547     0.8798 H       
  52 H52            2.2007     1.6643    -0.9001 H       
  53 H53            0.0358    -3.9366    -2.3604 H       
  54 H54           -0.0380    -0.2909    -4.5581 H       
@<TRIPOS>BOND
   1    1   28 1
   2    2   14 1
   3    2   24 1
   4    3   19 1
   5    3   20 1
   6    4   26 2
   7    5   15 1
   8    5   16 1
   9    5   17 1
  10    6   13 ar
  11    6   21 ar
  12    7   22 1
  13    7   26 am
  14    7   50 1
  15    8    9 1
  16    8   10 1
  17    8   29 1
  18    8   30 1
  19    9   11 1
  20    9   31 1
  21    9   32 1
  22   10   12 1
  23   10   33 1
  24   10   34 1
  25   11   13 ar
  26   11   14 ar
  27   12   13 1
  28   12   35 1
  29   12   36 1
  30   14   18 ar
  31   15   19 1
  32   15   37 1
  33   15   38 1
  34   16   20 1
  35   16   39 1
  36   16   40 1
  37   17   22 1
  38   17   41 1
  39   17   42 1
  40   18   21 ar
  41   18   23 ar
  42   19   43 1
  43   19   44 1
  44   20   45 1
  45   20   46 1
  46   21   25 ar
  47   22   47 1
  48   22   48 1
  49   23   27 ar
  50   23   49 1
  51   24   26 1
  52   24   51 1
  53   24   52 1
  54   25   28 ar
  55   25   53 1
  56   27   28 ar
  57   27   54 1

#	End of record

#	Name: 16193894
#	Creating user name:	landrgr1
#	Creation time:	28. 01. 2015 13:52

#	Modifying user name:	landrgr1
#	Modification time:	28. 01. 2015 13:52

#	Program:	corina 3.48 0006  22.01.2010

@<TRIPOS>MOLECULE
16193894
  51   54    0    0    0
SMALL
NO_CHARGES


@<TRIPOS>ATOM
   1 S1            -0.0172     1.4168     0.0098 S.o2    
   2 O2             0.0021    -0.0041     0.0020 O.2     
   3 O3             1.1890     2.1680     0.0023 O.2     
   4 O4            -5.8366    -4.8064     2.9728 O.3     
   5 O5            -2.9065    -0.5953    -0.9078 O.2     
   6 O6            -4.8344    -0.2549     2.0897 O.2     
   7 N7            -2.4245     0.1215     1.1257 N.am    
   8 N8            -4.6108    -2.3541     2.7720 N.am    
   9 C9            -1.1783     2.0514    -1.2464 C.3     
  10 C10           -2.6015     1.7267    -0.7585 C.3     
  11 C11           -0.7863     1.8368     1.5409 C.ar    
  12 C12           -1.9170     1.1407     1.9422 C.ar    
  13 C13           -2.6532     0.3428    -0.1820 C.2     
  14 C14           -1.0133     3.5424    -1.3906 C.ar    
  15 C15           -2.7060    -1.1968     1.6992 C.3     
  16 C16           -4.1267    -1.2336     2.2005 C.2     
  17 C17           -0.2729     2.8431     2.3311 C.ar    
  18 C18           -5.9945    -2.4138     3.2690 C.3     
  19 C19           -3.7714    -3.5540     2.9171 C.3     
  20 C20           -2.5357     1.4582     3.1424 C.ar    
  21 C21           -0.6521     4.0831    -2.6104 C.ar    
  22 C22           -1.2287     4.3699    -0.3044 C.ar    
  23 C23           -6.6599    -3.6707     2.6967 C.3     
  24 C24           -4.5451    -4.7553     2.3619 C.3     
  25 C25           -0.8903     3.1575     3.5297 C.ar    
  26 C26           -2.0186     2.4676     3.9327 C.ar    
  27 C27           -0.5007     5.4507    -2.7427 C.ar    
  28 C28           -1.0773     5.7375    -0.4366 C.ar    
  29 C29           -0.7109     6.2778    -1.6551 C.ar    
  30 H30           -0.9935     1.5626    -2.2030 H       
  31 H31           -2.8938     2.4468     0.0057 H       
  32 H32           -3.2944     1.7940    -1.5973 H       
  33 H33           -2.5705    -1.9620     0.9348 H       
  34 H34           -2.0233    -1.3860     2.5276 H       
  35 H35            0.6075     3.3836     2.0166 H       
  36 H36           -5.9917    -2.4634     4.3579 H       
  37 H37           -6.5404    -1.5286     2.9427 H       
  38 H38           -2.8449    -3.4237     2.3577 H       
  39 H39           -3.5447    -3.7183     3.9705 H       
  40 H40           -3.4173     0.9198     3.4577 H       
  41 H41           -0.4878     3.4370    -3.4601 H       
  42 H42           -1.5155     3.9479     0.6475 H       
  43 H43           -6.7792    -3.5609     1.6188 H       
  44 H44           -7.6371    -3.8083     3.1597 H       
  45 H45           -4.0007    -5.6731     2.5841 H       
  46 H46           -4.6566    -4.6494     1.2828 H       
  47 H47           -0.4904     3.9453     4.1509 H       
  48 H48           -2.4975     2.7182     4.8677 H       
  49 H49           -0.2178     5.8731    -3.6956 H       
  50 H50           -1.2459     6.3840     0.4119 H       
  51 H51           -0.5923     7.3463    -1.7584 H       
@<TRIPOS>BOND
   1    1    2 2
   2    1    3 2
   3    1    9 1
   4    1   11 1
   5    4   23 1
   6    4   24 1
   7    5   13 2
   8    6   16 2
   9    7   12 1
  10    7   13 am
  11    7   15 1
  12    8   16 am
  13    8   18 1
  14    8   19 1
  15    9   10 1
  16    9   14 1
  17    9   30 1
  18   10   13 1
  19   10   31 1
  20   10   32 1
  21   11   12 ar
  22   11   17 ar
  23   12   20 ar
  24   14   21 ar
  25   14   22 ar
  26   15   16 1
  27   15   33 1
  28   15   34 1
  29   17   25 ar
  30   17   35 1
  31   18   23 1
  32   18   36 1
  33   18   37 1
  34   19   24 1
  35   19   38 1
  36   19   39 1
  37   20   26 ar
  38   20   40 1
  39   21   27 ar
  40   21   41 1
  41   22   28 ar
  42   22   42 1
  43   23   43 1
  44   23   44 1
  45   24   45 1
  46   24   46 1
  47   25   26 ar
  48   25   47 1
  49   26   48 1
  50   27   29 ar
  51   27   49 1
  52   28   29 ar
  53   28   50 1
  54   29   51 1

#	End of record

#	Name: 16193872
#	Creating user name:	landrgr1
#	Creation time:	28. 01. 2015 13:52

#	Modifying user name:	landrgr1
#	Modification time:	28. 01. 2015 13:52

#	Program:	corina 3.48 0006  22.01.2010

@<TRIPOS>MOLECULE
16193872
  34   37    0    0    0
SMALL
NO_CHARGES


@<TRIPOS>ATOM
   1 Cl1            1.0729     1.9771     2.7107 Cl      
   2 O2            -2.1481    -2.8749     0.0061 O.2     
   3 O3            -1.1749     3.2633     0.0258 O.2     
   4 N4            -0.0165     1.3691     0.0096 N.am    
   5 N5             0.0885    -2.7703    -0.0145 N.am    
   6 N6             1.1529    -0.6621    -0.0129 N.2     
   7 N7            -4.6785     2.6034     0.0640 N.1     
   8 C8             0.0021    -0.0041     0.0020 C.2     
   9 C9            -1.2086    -0.7350     0.0096 C.2     
  10 C10           -1.1369    -2.1964     0.0006 C.2     
  11 C11            1.2132    -1.9930    -0.0206 C.2     
  12 C12            1.1926     2.0762     0.0018 C.ar    
  13 C13           -2.4403    -0.0704     0.0258 C.2     
  14 C14           -1.1807     2.0452     0.0187 C.2     
  15 C15           -2.4532     1.3221     0.0343 C.2     
  16 C16            0.1843    -4.1299    -0.0231 C.2     
  17 C17            2.4785    -2.6112    -0.0364 C.2     
  18 C18            1.8053     2.4213     1.2007 C.ar    
  19 C19            1.7845     2.4288    -1.2032 C.ar    
  20 C20            1.3912    -4.7387    -0.0378 C.2     
  21 C21            2.5640    -3.9710    -0.0456 C.2     
  22 C22            2.9982     3.1189     1.1891 C.ar    
  23 C23            2.9771     3.1262    -1.2077 C.ar    
  24 C24            3.5814     3.4737    -0.0137 C.ar    
  25 C25           -3.6941     2.0366     0.0509 C.1     
  26 H26           -3.3651    -0.6282     0.0313 H       
  27 H27           -0.7149    -4.7280    -0.0178 H       
  28 H28            3.3762    -2.0107    -0.0415 H       
  29 H29            1.3133     2.1579    -2.1365 H       
  30 H30            1.4518    -5.8170    -0.0437 H       
  31 H31            3.5297    -4.4546    -0.0579 H       
  32 H32            3.4752     3.3876     2.1200 H       
  33 H33            3.4377     3.4006    -2.1452 H       
  34 H34            4.5135     4.0192    -0.0204 H       
@<TRIPOS>BOND
   1    1   18 1
   2    2   10 2
   3    3   14 2
   4    4    8 1
   5    4   12 1
   6    4   14 am
   7    5   10 am
   8    5   11 1
   9    5   16 1
  10    6    8 1
  11    6   11 2
  12    7   25 3
  13    8    9 2
  14    9   10 1
  15    9   13 1
  16   11   17 1
  17   12   18 ar
  18   12   19 ar
  19   13   15 2
  20   13   26 1
  21   14   15 1
  22   15   25 1
  23   16   20 2
  24   16   27 1
  25   17   21 2
  26   17   28 1
  27   18   22 ar
  28   19   23 ar
  29   19   29 1
  30   20   21 1
  31   20   30 1
  32   21   31 1
  33   22   24 ar
  34   22   32 1
  35   23   24 ar
  36   23   33 1
  37   24   34 1

#	End of record

#	Name: 16193869
#	Creating user name:	landrgr1
#	Creation time:	28. 01. 2015 13:52

#	Modifying user name:	landrgr1
#	Modification time:	28. 01. 2015 13:52

#	Program:	corina 3.48 0006  22.01.2010

@<TRIPOS>MOLECULE
16193869
  52   52    0    0    0
SMALL
NO_CHARGES


@<TRIPOS>ATOM
   1 Br1            4.2071    -2.8244     3.9995 Br      
   2 O2             0.0852     1.1479     0.3767 O.3     
   3 O3            -2.0097     0.9572    -9.3834 O.3     
   4 N4            -0.0212    -0.1706    -3.6582 N.3     
   5 C5             0.6061    -0.4987    -1.3138 C.3     
   6 C6             0.1562    -0.2576     0.1285 C.3     
   7 C7            -0.3855     0.1610    -2.2743 C.3     
   8 C8             1.9755     0.0959    -1.5190 C.ar    
   9 C9             1.1466    -0.8854     1.0752 C.ar    
  10 C10           -1.2230    -0.8839     0.3441 C.3     
  11 C11           -0.9535     0.4472    -4.6106 C.3     
  12 C12            3.0632    -0.7306    -1.7309 C.ar    
  13 C13            2.1431     1.4679    -1.5009 C.ar    
  14 C14           -0.5426     0.0800    -6.0378 C.3     
  15 C15            1.3486    -0.3366     2.3278 C.ar    
  16 C16            1.8485    -2.0133     0.6928 C.ar    
  17 C17           -1.5137     0.7234    -7.0297 C.3     
  18 C18            4.3194    -0.1852    -1.9190 C.ar    
  19 C19            3.3993     2.0133    -1.6891 C.ar    
  20 C20            2.2572    -0.9118     3.1962 C.ar    
  21 C21            2.7569    -2.5894     1.5607 C.ar    
  22 C22            4.4879     1.1866    -1.8957 C.ar    
  23 C23            2.9639    -2.0370     2.8119 C.ar    
  24 C24           -1.1027     0.3562    -8.4570 C.3     
  25 H25            0.6424    -1.5705    -1.5087 H       
  26 H26           -0.3566     1.2424    -2.1402 H       
  27 H27           -1.3911    -0.2042    -2.0658 H       
  28 H28           -1.9392    -0.4298    -0.3406 H       
  29 H29           -1.1688    -1.9560     0.1548 H       
  30 H30           -1.5434    -0.7121     1.3717 H       
  31 H31            0.9304     0.1001    -3.8564 H       
  32 H32           -1.9631     0.0840    -4.4183 H       
  33 H33           -0.9286     1.5305    -4.4926 H       
  34 H34            0.9443     1.5918     0.3736 H       
  35 H35            2.9315    -1.8024    -1.7491 H       
  36 H36            1.2926     2.1138    -1.3401 H       
  37 H37            0.4670     0.4432    -6.2301 H       
  38 H38           -0.5675    -1.0034    -6.1558 H       
  39 H39            0.7968     0.5420     2.6277 H       
  40 H40            1.6868    -2.4445    -0.2841 H       
  41 H41           -2.5232     0.3602    -6.8374 H       
  42 H42           -1.4887     1.8068    -6.9118 H       
  43 H43            5.1692    -0.8309    -2.0838 H       
  44 H44            3.5302     3.0852    -1.6754 H       
  45 H45            2.4155    -0.4825     4.1745 H       
  46 H46            3.3056    -3.4704     1.2618 H       
  47 H47            5.4694     1.6127    -2.0424 H       
  48 H48           -1.1277    -0.7271    -8.5749 H       
  49 H49           -0.0932     0.7194    -8.6493 H       
  50 H50           -1.8094     0.7664   -10.3100 H       
  51 Cl51          10.4694     8.0852     9.1745 Cl      
  52 H52           10.4694     9.4552     9.1745 H       
@<TRIPOS>BOND
   1    1   23 1
   2    2    6 1
   3    2   34 1
   4    3   24 1
   5    3   50 1
   6    4    7 1
   7    4   11 1
   8    4   31 1
   9    5    6 1
  10    5    7 1
  11    5    8 1
  12    5   25 1
  13    6    9 1
  14    6   10 1
  15    7   26 1
  16    7   27 1
  17    8   12 ar
  18    8   13 ar
  19    9   15 ar
  20    9   16 ar
  21   10   28 1
  22   10   29 1
  23   10   30 1
  24   11   14 1
  25   11   32 1
  26   11   33 1
  27   12   18 ar
  28   12   35 1
  29   13   19 ar
  30   13   36 1
  31   14   17 1
  32   14   37 1
  33   14   38 1
  34   15   20 ar
  35   15   39 1
  36   16   21 ar
  37   16   40 1
  38   17   24 1
  39   17   41 1
  40   17   42 1
  41   18   22 ar
  42   18   43 1
  43   19   22 ar
  44   19   44 1
  45   20   23 ar
  46   20   45 1
  47   21   23 ar
  48   21   46 1
  49   22   47 1
  50   24   48 1
  51   24   49 1
  52   51   52 1

#	End of record

#	Name: 16193865
#	Creating user name:	landrgr1
#	Creation time:	28. 01. 2015 13:52

#	Modifying user name:	landrgr1
#	Modification time:	28. 01. 2015 13:52

#	Program:	corina 3.48 0006  22.01.2010

@<TRIPOS>MOLECULE
16193865
  40   41    0    0    0
SMALL
NO_CHARGES


@<TRIPOS>ATOM
   1 S1             0.4627     1.3678    -0.1578 S.3     
   2 O2             4.4366     3.3604    -0.4447 O.2     
   3 O3             5.9527     9.7137    -1.4686 O.2     
   4 O4             8.0034     9.4622    -1.0423 O.2     
   5 N5             3.7311     5.4173    -0.0045 N.am    
   6 N6             0.1315    -2.9775    -1.7709 N.ar    
   7 N7             6.8645     9.0305    -1.0382 N.pl3   
   8 C8            -0.6514    -1.1196    -0.3889 C.3     
   9 C9             0.6969    -0.4020    -0.4795 C.3     
  10 C10            2.1427     2.0355    -0.3073 C.3     
  11 C11            2.1155     3.5450    -0.0594 C.3     
  12 C12           -0.4569    -2.5899    -0.6561 C.ar    
  13 C13            3.5112     4.0997    -0.1836 C.2     
  14 C14            5.0386     5.9155    -0.0102 C.ar    
  15 C15            5.2967     7.1866    -0.5058 C.ar    
  16 C16           -0.8975    -3.5164     0.2696 C.ar    
  17 C17            6.0804     5.1418     0.4850 C.ar    
  18 C18            6.5886     7.6755    -0.5101 C.ar    
  19 C19            7.3697     5.6363     0.4779 C.ar    
  20 C20            7.6243     6.9004    -0.0221 C.ar    
  21 C21           -0.7136    -4.8669     0.0142 C.ar    
  22 C22            0.3234    -4.2525    -2.0467 C.ar    
  23 C23           -0.0908    -5.2360    -1.1681 C.ar    
  24 H24           -1.0690    -0.9838     0.6088 H       
  25 H25           -1.3351    -0.7032    -1.1287 H       
  26 H26            1.1144    -0.5379    -1.4771 H       
  27 H27            1.3805    -0.8184     0.2603 H       
  28 H28            1.4680     4.0224    -0.7949 H       
  29 H29            1.7341     3.7419     0.9426 H       
  30 H30            2.7902     1.5581     0.4282 H       
  31 H31            2.5241     1.8387    -1.3093 H       
  32 H32            2.9829     6.0202     0.1284 H       
  33 H33            4.4882     7.7923    -0.8878 H       
  34 H34           -1.3786    -3.1928     1.1808 H       
  35 H35            5.8822     4.1545     0.8755 H       
  36 H36            8.1801     5.0353     0.8631 H       
  37 H37            8.6336     7.2847    -0.0272 H       
  38 H38           -1.0474    -5.6135     0.7196 H       
  39 H39            0.8087    -4.5318    -2.9702 H       
  40 H40            0.0692    -6.2787    -1.3995 H       
@<TRIPOS>BOND
   1    1    9 1
   2    1   10 1
   3    2   13 2
   4    3    7 2
   5    4    7 2
   6    5   13 am
   7    5   14 1
   8    5   32 1
   9    6   12 ar
  10    6   22 ar
  11    7   18 1
  12    8    9 1
  13    8   12 1
  14    8   24 1
  15    8   25 1
  16    9   26 1
  17    9   27 1
  18   10   11 1
  19   10   30 1
  20   10   31 1
  21   11   13 1
  22   11   28 1
  23   11   29 1
  24   12   16 ar
  25   14   15 ar
  26   14   17 ar
  27   15   18 ar
  28   15   33 1
  29   16   21 ar
  30   16   34 1
  31   17   19 ar
  32   17   35 1
  33   18   20 ar
  34   19   20 ar
  35   19   36 1
  36   20   37 1
  37   21   23 ar
  38   21   38 1
  39   22   23 ar
  40   22   39 1
  41   23   40 1

#	End of record

#	Name: 16193848
#	Creating user name:	landrgr1
#	Creation time:	28. 01. 2015 13:52

#	Modifying user name:	landrgr1
#	Modification time:	28. 01. 2015 13:52

#	Program:	corina 3.48 0006  22.01.2010

@<TRIPOS>MOLECULE
16193848
  50   53    0    0    0
SMALL
NO_CHARGES


@<TRIPOS>ATOM
   1 O1            -0.7393    -3.5162     1.6054 O.2     
   2 O2            -0.1458     0.5538    -0.7734 O.3     
   3 O3            -2.8567     3.8764    -0.3649 O.3     
   4 O4            -7.1812     1.9614    -0.9248 O.3     
   5 O5            -5.4068     4.0120    -1.3882 O.3     
   6 N6            -1.7670    -1.5361     1.1843 N.am    
   7 N7            -3.8418    -0.3903     1.5815 N.pl3   
   8 N8            -2.8239    -0.5483     4.5700 N.ar    
   9 C9            -2.4467    -0.5289     2.0065 C.3     
  10 C10           -2.3854    -1.0311     3.4288 C.ar    
  11 C11           -1.7066    -2.2504     3.3834 C.ar    
  12 C12           -1.3406    -2.5297     1.9833 C.2     
  13 C13           -1.5882    -1.4727    -0.2684 C.3     
  14 C14           -4.2371     0.7220     0.8306 C.ar    
  15 C15           -1.5000    -2.9531     4.5752 C.ar    
  16 C16           -0.2945    -0.7676    -0.5849 C.2     
  17 C17           -1.9812    -2.4029     5.7505 C.ar    
  18 C18           -2.6439    -1.1891     5.7101 C.ar    
  19 C19           -5.5260     0.7915     0.3195 C.ar    
  20 C20           -3.3421     1.7582     0.6016 C.ar    
  21 C21            0.9072    -1.3551    -0.7270 C.2     
  22 C22           -3.7333     2.8610    -0.1416 C.ar    
  23 C23           -5.9186     1.8934    -0.4243 C.ar    
  24 C24           -5.0217     2.9289    -0.6579 C.ar    
  25 C25            1.8337    -0.3275    -1.0181 C.2     
  26 C26            1.1427     0.8264    -1.0364 C.2     
  27 C27           -1.5495     3.7401     0.1960 C.3     
  28 C28           -8.0499     0.8617    -0.6453 C.3     
  29 C29           -5.1942     3.9514    -2.8000 C.3     
  30 H30           -1.9337     0.4294     1.9246 H       
  31 H31           -1.5602    -2.4834    -0.6755 H       
  32 H32           -2.4189    -0.9247    -0.7131 H       
  33 H33           -4.4914    -1.0698     1.8208 H       
  34 H34           -0.9794    -3.8994     4.5780 H       
  35 H35           -1.8410    -2.9165     6.6902 H       
  36 H36           -3.0194    -0.7583     6.6265 H       
  37 H37           -6.2230    -0.0133     0.5012 H       
  38 H38           -2.3408     1.7053     1.0030 H       
  39 H39            1.1231    -2.4094    -0.6357 H       
  40 H40            2.8929    -0.4462    -1.1920 H       
  41 H41            1.5542     1.8060    -1.2299 H       
  42 H42           -0.9526     4.6166    -0.0564 H       
  43 H43           -1.6265     3.6528     1.2798 H       
  44 H44           -1.0722     2.8471    -0.2075 H       
  45 H45           -7.6214    -0.0530    -1.0548 H       
  46 H46           -8.1677     0.7567     0.4332 H       
  47 H47           -9.0233     1.0427    -1.1012 H       
  48 H48           -4.1306     3.8250    -3.0022 H       
  49 H49           -5.7457     3.1076    -3.2145 H       
  50 H50           -5.5442     4.8755    -3.2601 H       
@<TRIPOS>BOND
   1    1   12 2
   2    2   16 1
   3    2   26 1
   4    3   22 1
   5    3   27 1
   6    4   23 1
   7    4   28 1
   8    5   24 1
   9    5   29 1
  10    6    9 1
  11    6   12 am
  12    6   13 1
  13    7    9 1
  14    7   14 1
  15    7   33 1
  16    8   10 ar
  17    8   18 ar
  18    9   10 1
  19    9   30 1
  20   10   11 ar
  21   11   12 1
  22   11   15 ar
  23   13   16 1
  24   13   31 1
  25   13   32 1
  26   14   19 ar
  27   14   20 ar
  28   15   17 ar
  29   15   34 1
  30   16   21 2
  31   17   18 ar
  32   17   35 1
  33   18   36 1
  34   19   23 ar
  35   19   37 1
  36   20   22 ar
  37   20   38 1
  38   21   25 1
  39   21   39 1
  40   22   24 ar
  41   23   24 ar
  42   25   26 2
  43   25   40 1
  44   26   41 1
  45   27   42 1
  46   27   43 1
  47   27   44 1
  48   28   45 1
  49   28   46 1
  50   28   47 1
  51   29   48 1
  52   29   49 1
  53   29   50 1

#	End of record

#	Name: 16193825
#	Creating user name:	landrgr1
#	Creation time:	28. 01. 2015 13:52

#	Modifying user name:	landrgr1
#	Modification time:	28. 01. 2015 13:52

#	Program:	corina 3.48 0006  22.01.2010

@<TRIPOS>MOLECULE
16193825
  38   41    0    0    0
SMALL
NO_CHARGES


@<TRIPOS>ATOM
   1 Cl1           -5.4978     4.3840    -1.5293 Cl      
   2 S2             0.0532     1.5450    -0.0688 S.3     
   3 O3            -0.4600    -3.1392     1.9782 O.2     
   4 N4            -1.6185    -1.2486     1.4905 N.am    
   5 N5            -3.8458    -0.3508     1.5808 N.pl3   
   6 N6            -3.3313    -0.6183     4.6882 N.ar    
   7 C7            -2.5349    -0.3771     2.2342 C.3     
   8 C8            -2.6565    -0.9711     3.6167 C.ar    
   9 C9            -1.8471    -2.1088     3.6254 C.ar    
  10 C10           -1.2229    -2.2485     2.2975 C.2     
  11 C11           -1.2074    -1.0634     0.0966 C.3     
  12 C12            0.0336    -0.2098     0.0481 C.2     
  13 C13           -1.7653    -2.8705     4.7958 C.ar    
  14 C14           -4.2370     0.7704     0.8441 C.ar    
  15 C15           -2.4951    -2.4576     5.8970 C.ar    
  16 C16           -3.2738    -1.3176     5.8064 C.ar    
  17 C17            1.2852    -0.6696     0.0865 C.2     
  18 C18           -5.5272     0.8539     0.3364 C.ar    
  19 C19           -3.3380     1.8059     0.6230 C.ar    
  20 C20            2.2666     0.3048     0.0276 C.2     
  21 C21            1.8120     1.5559    -0.0587 C.2     
  22 C22           -5.9111     1.9634    -0.3909 C.ar    
  23 C23           -3.7275     2.9130    -0.1051 C.ar    
  24 C24           -5.0119     2.9912    -0.6141 C.ar    
  25 H25           -2.1265     0.6317     2.2939 H       
  26 H26           -0.9983    -2.0343    -0.3526 H       
  27 H27           -2.0081    -0.5722    -0.4562 H       
  28 H28           -4.4423    -1.1117     1.6595 H       
  29 H29           -1.1496    -3.7567     4.8389 H       
  30 H30           -2.4574    -3.0203     6.8181 H       
  31 H31           -3.8433    -0.9939     6.6651 H       
  32 H32            1.5154    -1.7223     0.1585 H       
  33 H33           -6.2293     0.0519     0.5100 H       
  34 H34           -2.3356     1.7455     1.0203 H       
  35 H35            3.3205     0.0700     0.0501 H       
  36 H36            2.4295     2.4402    -0.1142 H       
  37 H37           -6.9141     2.0287    -0.7862 H       
  38 H38           -3.0290     3.7186    -0.2770 H       
@<TRIPOS>BOND
   1    1   24 1
   2    2   12 1
   3    2   21 1
   4    3   10 2
   5    4    7 1
   6    4   10 am
   7    4   11 1
   8    5    7 1
   9    5   14 1
  10    5   28 1
  11    6    8 ar
  12    6   16 ar
  13    7    8 1
  14    7   25 1
  15    8    9 ar
  16    9   10 1
  17    9   13 ar
  18   11   12 1
  19   11   26 1
  20   11   27 1
  21   12   17 2
  22   13   15 ar
  23   13   29 1
  24   14   18 ar
  25   14   19 ar
  26   15   16 ar
  27   15   30 1
  28   16   31 1
  29   17   20 1
  30   17   32 1
  31   18   22 ar
  32   18   33 1
  33   19   23 ar
  34   19   34 1
  35   20   21 2
  36   20   35 1
  37   21   36 1
  38   22   24 ar
  39   22   37 1
  40   23   24 ar
  41   23   38 1

#	End of record

#	Name: 16193822
#	Creating user name:	landrgr1
#	Creation time:	28. 01. 2015 13:52

#	Modifying user name:	landrgr1
#	Modification time:	28. 01. 2015 13:52

#	Program:	corina 3.48 0006  22.01.2010

@<TRIPOS>MOLECULE
16193822
  63   65    0    0    0
SMALL
NO_CHARGES


@<TRIPOS>ATOM
   1 O1             6.1711    -1.3110    -0.4550 O.2     
   2 O2            -0.1060     0.4072     2.0660 O.3     
   3 O3             0.2631     2.2266    -2.3241 O.3     
   4 O4            -0.9465     2.1868     0.1452 O.3     
   5 O5             3.8592    -1.2765    -2.0246 O.2     
   6 O6            11.8075    -4.2217    -1.5713 O.3     
   7 N7             1.0204    -5.3039    -0.2276 N.pl3   
   8 N8             3.6032    -2.2995    -0.0694 N.am    
   9 N9             7.1090    -3.3083    -0.7212 N.am    
  10 C10            2.9171    -6.4718     0.0549 C.ar    
  11 C11            1.5156    -6.5610     0.0514 C.ar    
  12 C12            3.2345    -5.0627    -0.2436 C.2     
  13 C13            2.0393    -4.4217    -0.4012 C.2     
  14 C14            4.5692    -4.4678    -0.3495 C.2     
  15 C15            3.6881    -7.6025     0.3115 C.ar    
  16 C16            0.9096    -7.7869     0.3058 C.ar    
  17 C17           -0.4022    -4.9689    -0.3285 C.3     
  18 C18            4.7169    -3.1192    -0.3030 C.2     
  19 C19            3.0691    -8.8081     0.5609 C.ar    
  20 C20            1.6848    -8.8980     0.5579 C.ar    
  21 C21            6.0387    -2.5205    -0.4967 C.2     
  22 C22            8.4317    -2.7092    -0.9150 C.3     
  23 C23            9.4629    -3.8148    -1.1497 C.3     
  24 C24            2.1532    -0.4252    -0.6766 C.ar    
  25 C25            3.2588    -1.3578    -0.9701 C.2     
  26 C26           10.8444    -3.1891    -1.3521 C.3     
  27 C27            1.7205     0.4763    -1.6523 C.ar    
  28 C28            1.5335    -0.4465     0.5754 C.ar    
  29 C29            0.4979     0.4277     0.8476 C.ar    
  30 C30            0.6845     1.3484    -1.3750 C.ar    
  31 C31            0.0722     1.3288    -0.1247 C.ar    
  32 C32            0.3810    -0.5430     3.0156 C.3     
  33 C33            1.0103     2.2742    -3.5413 C.3     
  34 C34           -0.5961     3.4548     0.7032 C.3     
  35 H35            1.9216    -3.3727    -0.6298 H       
  36 H36            5.4356    -5.1023    -0.4644 H       
  37 H37            4.7660    -7.5351     0.3143 H       
  38 H38           -0.1674    -7.8678     0.3061 H       
  39 H39           -0.7550    -4.5893     0.6304 H       
  40 H40           -0.5424    -4.2066    -1.0949 H       
  41 H41           -0.9676    -5.8615    -0.5962 H       
  42 H42            3.6644    -9.6869     0.7603 H       
  43 H43            1.2101    -9.8478     0.7552 H       
  44 H44            8.4070    -2.0459    -1.7796 H       
  45 H45            8.7059    -2.1390    -0.0274 H       
  46 H46            3.0807    -2.4102     0.7403 H       
  47 H47            9.4877    -4.4781    -0.2851 H       
  48 H48            9.1887    -4.3850    -2.0373 H       
  49 H49            7.0034    -4.2720    -0.7544 H       
  50 H50           11.1186    -2.6189    -0.4645 H       
  51 H51           10.8197    -2.5258    -2.2168 H       
  52 H52            2.1954     0.4922    -2.6221 H       
  53 H53            1.8632    -1.1455     1.3298 H       
  54 H54           12.7081    -3.8971    -1.7077 H       
  55 H55           -0.1858    -0.4538     3.9424 H       
  56 H56            0.2651    -1.5498     2.6143 H       
  57 H57            1.4353    -0.3503     3.2145 H       
  58 H58            2.0591     2.4681    -3.3164 H       
  59 H59            0.9204     1.3200    -4.0604 H       
  60 H60            0.6214     3.0709    -4.1754 H       
  61 H61           -1.5000     4.0408     0.8697 H       
  62 H62           -0.0807     3.3044     1.6519 H       
  63 H63            0.0597     3.9865     0.0138 H       
@<TRIPOS>BOND
   1    1   21 2
   2    2   29 1
   3    2   32 1
   4    3   30 1
   5    3   33 1
   6    4   31 1
   7    4   34 1
   8    5   25 2
   9    6   26 1
  10    6   54 1
  11    7   11 1
  12    7   13 1
  13    7   17 1
  14    8   18 1
  15    8   25 am
  16    8   46 1
  17    9   21 am
  18    9   22 1
  19    9   49 1
  20   10   11 ar
  21   10   12 1
  22   10   15 ar
  23   11   16 ar
  24   12   13 2
  25   12   14 1
  26   13   35 1
  27   14   18 2
  28   14   36 1
  29   15   19 ar
  30   15   37 1
  31   16   20 ar
  32   16   38 1
  33   17   39 1
  34   17   40 1
  35   17   41 1
  36   18   21 1
  37   19   20 ar
  38   19   42 1
  39   20   43 1
  40   22   23 1
  41   22   44 1
  42   22   45 1
  43   23   26 1
  44   23   47 1
  45   23   48 1
  46   24   25 1
  47   24   27 ar
  48   24   28 ar
  49   26   50 1
  50   26   51 1
  51   27   30 ar
  52   27   52 1
  53   28   29 ar
  54   28   53 1
  55   29   31 ar
  56   30   31 ar
  57   32   55 1
  58   32   56 1
  59   32   57 1
  60   33   58 1
  61   33   59 1
  62   33   60 1
  63   34   61 1
  64   34   62 1
  65   34   63 1

#	End of record

#	Name: 16193763
#	Creating user name:	landrgr1
#	Creation time:	28. 01. 2015 13:52

#	Modifying user name:	landrgr1
#	Modification time:	28. 01. 2015 13:52

#	Program:	corina 3.48 0006  22.01.2010

@<TRIPOS>MOLECULE
16193763
  51   53    0    0    0
SMALL
NO_CHARGES


@<TRIPOS>ATOM
   1 I1             0.0000     0.0000     0.0000 I       
   2 S2             7.4964    11.7774     6.8859 S.3     
   3 O3             9.4941     7.2750     6.7506 O.2     
   4 O4             8.5769    10.5905     8.9627 O.2     
   5 N5             7.9073     8.3249     7.8565 N.am    
   6 N6             8.5401     6.8191    10.1281 N.ar    
   7 N7             7.2627    10.5025    10.7479 N.am    
   8 C8             7.2370     8.6530     9.1056 C.3     
   9 C9             7.4892     7.6103    10.1616 C.ar    
  10 C10            9.5392     6.8993     9.0606 C.3     
  11 C11            8.9732     7.5157     7.8191 C.2     
  12 C12            7.3983     8.8909     6.6048 C.3     
  13 C13            7.7409     9.9847     9.5992 C.2     
  14 C14            6.5629     7.5056    11.1910 C.ar    
  15 C15            8.7392     5.9070    11.0717 C.ar    
  16 C16            8.0762    10.2100     6.3377 C.2     
  17 C17            6.7427     6.5649    12.1890 C.ar    
  18 C18            7.8609     5.7481    12.1218 C.ar    
  19 C19            7.7849    11.7014    11.2458 C.ar    
  20 C20            6.9330    12.7462    11.5791 C.ar    
  21 C21            9.1559    11.8469    11.4129 C.ar    
  22 C22            9.2074    10.3676     5.6485 C.2     
  23 C23            9.6417    11.6767     5.5317 C.2     
  24 C24            7.4517    13.9283    12.0702 C.ar    
  25 C25            9.6682    13.0315    11.9045 C.ar    
  26 C26            8.8632    12.5823     6.1260 C.2     
  27 C27            5.4443    12.5906    11.4047 C.3     
  28 C28           10.0835    10.7132    11.0588 C.3     
  29 C29            8.8177    14.0721    12.2301 C.ar    
  30 H30            6.1643     8.7246     8.9255 H       
  31 H31           10.3802     7.5012     9.4051 H       
  32 H32            9.8937     5.8949     8.8291 H       
  33 H33            7.6050     8.2034     5.7846 H       
  34 H34            6.3224     9.0454     6.6870 H       
  35 H35            5.7029     8.1586    11.2125 H       
  36 H36            9.6118     5.2731    11.0150 H       
  37 H37            6.5564    10.0441    11.2295 H       
  38 H38            6.0327     6.4696    12.9973 H       
  39 H39            8.0408     5.0000    12.8796 H       
  40 H40            9.7439     9.5366     5.2149 H       
  41 H41           10.5427    11.9446     5.0000 H       
  42 H42            6.7897    14.7414    12.3293 H       
  43 H43           10.7342    13.1452    12.0351 H       
  44 H44            9.0442    13.6469     6.1383 H       
  45 H45            5.0114    12.1873    12.3201 H       
  46 H46            5.0000    13.5626    11.1902 H       
  47 H47            5.2446    11.9094    10.5775 H       
  48 H48           10.4954    10.8783    10.0632 H       
  49 H49           10.8952    10.6676    11.7849 H       
  50 H50            9.5308     9.7739    11.0722 H       
  51 H51            9.2208    14.9974    12.6144 H       
@<TRIPOS>BOND
   1    2   16 1
   2    2   26 1
   3    3   11 2
   4    4   13 2
   5    5    8 1
   6    5   11 am
   7    5   12 1
   8    6    9 ar
   9    6   10 1
  10    6   15 ar
  11    7   13 am
  12    7   19 1
  13    7   37 1
  14    8    9 1
  15    8   13 1
  16    8   30 1
  17    9   14 ar
  18   10   11 1
  19   10   31 1
  20   10   32 1
  21   12   16 1
  22   12   33 1
  23   12   34 1
  24   14   17 ar
  25   14   35 1
  26   15   18 ar
  27   15   36 1
  28   16   22 2
  29   17   18 ar
  30   17   38 1
  31   18   39 1
  32   19   20 ar
  33   19   21 ar
  34   20   24 ar
  35   20   27 1
  36   21   25 ar
  37   21   28 1
  38   22   23 1
  39   22   40 1
  40   23   26 2
  41   23   41 1
  42   24   29 ar
  43   24   42 1
  44   25   29 ar
  45   25   43 1
  46   26   44 1
  47   27   45 1
  48   27   46 1
  49   27   47 1
  50   28   48 1
  51   28   49 1
  52   28   50 1
  53   29   51 1

#	End of record

#	Name: 16193701
#	Creating user name:	landrgr1
#	Creation time:	28. 01. 2015 13:52

#	Modifying user name:	landrgr1
#	Modification time:	28. 01. 2015 13:52

#	Program:	corina 3.48 0006  22.01.2010

@<TRIPOS>MOLECULE
16193701
  45   46    0    0    0
SMALL
NO_CHARGES


@<TRIPOS>ATOM
   1 Cl1            0.6609    -3.8134     1.5908 Cl      
   2 O2            -0.3254     1.1814    -1.3319 O.3     
   3 O3             2.6441    -2.2695     0.0421 O.3     
   4 O4           -12.1710     0.0068    -0.4263 O.3     
   5 O5            -7.2302     0.9243    -0.2630 O.2     
   6 O6            -4.9939     0.9606    -0.1626 O.2     
   7 O7            -3.3752    -2.0377     0.1218 O.2     
   8 N8            -2.4174    -0.0375     0.0259 N.am    
   9 C9            -1.1370    -0.6018     0.0294 C.ar    
  10 C10           -6.0809    -1.1273    -0.0665 C.3     
  11 C11           -0.0968     0.0232    -0.6573 C.ar    
  12 C12           -8.6490    -0.9207    -0.1992 C.ar    
  13 C13           -7.3231    -0.2820    -0.1828 C.2     
  14 C14           -0.8994    -1.7814     0.7211 C.ar    
  15 C15            1.1692    -0.5375    -0.6515 C.ar    
  16 C16           -4.8651    -0.2370    -0.0728 C.2     
  17 C17            1.4008    -1.7193     0.0368 C.ar    
  18 C18           -3.5048    -0.8337     0.0316 C.2     
  19 C19            0.3657    -2.3383     0.7246 C.ar    
  20 C20           -9.8031    -0.1397    -0.3070 C.ar    
  21 C21           -8.7594    -2.3124    -0.1127 C.ar    
  22 C22          -11.0461    -0.7486    -0.3220 C.ar    
  23 C23          -10.0038    -2.9064    -0.1288 C.ar    
  24 C24          -11.1446    -2.1306    -0.2303 C.ar    
  25 C25            0.7867     1.7660    -2.0127 C.3     
  26 C26            3.6631    -1.5769    -0.6817 C.3     
  27 C27          -13.4201    -0.6873    -0.4357 C.3     
  28 H28           -6.1123    -1.6929     0.8648 H       
  29 H29           -6.0306    -1.8171    -0.9090 H       
  30 H30           -1.7033    -2.2642     1.2570 H       
  31 H31           -2.5224     0.9268     0.0194 H       
  32 H32            1.9761    -0.0550    -1.1831 H       
  33 H33           -9.7253     0.9352    -0.3779 H       
  34 H34           -7.8709    -2.9213    -0.0337 H       
  35 H35          -10.0880    -3.9810    -0.0624 H       
  36 H36          -12.1161    -2.6023    -0.2424 H       
  37 H37            1.1675     1.0648    -2.7553 H       
  38 H38            0.4680     2.6828    -2.5086 H       
  39 H39            1.5728     1.9962    -1.2936 H       
  40 H40            3.7844    -0.5751    -0.2697 H       
  41 H41            4.6035    -2.1213    -0.5960 H       
  42 H42            3.3788    -1.5060    -1.7315 H       
  43 H43          -13.4483    -1.3730    -1.2825 H       
  44 H44          -13.5301    -1.2500     0.4913 H       
  45 H45          -14.2347     0.0317    -0.5231 H       
@<TRIPOS>BOND
   1    1   19 1
   2    2   11 1
   3    2   25 1
   4    3   17 1
   5    3   26 1
   6    4   22 1
   7    4   27 1
   8    5   13 2
   9    6   16 2
  10    7   18 2
  11    8    9 1
  12    8   18 am
  13    8   31 1
  14    9   11 ar
  15    9   14 ar
  16   10   13 1
  17   10   16 1
  18   10   28 1
  19   10   29 1
  20   11   15 ar
  21   12   13 1
  22   12   20 ar
  23   12   21 ar
  24   14   19 ar
  25   14   30 1
  26   15   17 ar
  27   15   32 1
  28   16   18 1
  29   17   19 ar
  30   20   22 ar
  31   20   33 1
  32   21   23 ar
  33   21   34 1
  34   22   24 ar
  35   23   24 ar
  36   23   35 1
  37   24   36 1
  38   25   37 1
  39   25   38 1
  40   25   39 1
  41   26   40 1
  42   26   41 1
  43   26   42 1
  44   27   43 1
  45   27   44 1
  46   27   45 1

#	End of record

#	Name: 16193628
#	Creating user name:	landrgr1
#	Creation time:	28. 01. 2015 13:52

#	Modifying user name:	landrgr1
#	Modification time:	28. 01. 2015 13:52

#	Program:	corina 3.48 0006  22.01.2010

@<TRIPOS>MOLECULE
16193628
  44   47    0    0    0
SMALL
NO_CHARGES


@<TRIPOS>ATOM
   1 Cl1          -10.6656     2.3342     7.2403 Cl      
   2 O2            -0.7543    -1.6253     0.0365 O.2     
   3 O3            -4.8150     0.2334     4.0028 O.3     
   4 O4            -0.0733     1.8337     0.6555 O.3     
   5 O5            -8.7266     2.0835    -0.0440 O.2     
   6 O6            -6.8611     1.4100    -0.7630 O.2     
   7 N7            -4.8483     0.6544     1.0649 N.3     
   8 N8            -2.2942    -0.0302     0.1858 N.am    
   9 N9            -5.9177     0.6771     3.2334 N.2     
  10 N10           -7.1921     1.0038     3.7213 N.pl3   
  11 N11           -7.9625     1.3908     2.6144 N.2     
  12 N12           -7.6213     1.6166     0.1659 N.pl3   
  13 C13           -4.4549    -0.7608     1.0465 C.3     
  14 C14           -3.7149     1.5180     1.4220 C.3     
  15 C15           -3.3954    -0.9789    -0.0389 C.3     
  16 C16           -2.6250     1.3932     0.3520 C.3     
  17 C17           -5.9329     0.8639     1.9312 C.2     
  18 C18           -1.0159    -0.4540     0.2385 C.2     
  19 C19           -7.2021     1.3004     1.5498 C.2     
  20 C20            0.0599     0.4962     0.5392 C.2     
  21 C21           -7.6144     0.9529     5.0572 C.ar    
  22 C22            1.3720     0.1824     0.7501 C.2     
  23 C23           -8.7862     1.5902     5.4408 C.ar    
  24 C24           -6.8639     0.2599     5.9980 C.ar    
  25 C25            2.0405     1.3907     1.0019 C.2     
  26 C26            1.1189     2.3766     0.9345 C.2     
  27 C27           -9.2001     1.5377     6.7589 C.ar    
  28 C28           -7.2820     0.2107     7.3133 C.ar    
  29 C29           -8.4468     0.8510     7.6947 C.ar    
  30 H30           -4.0432    -1.0365     2.0173 H       
  31 H31           -5.3274    -1.3781     0.8323 H       
  32 H32           -4.0506     2.5533     1.4802 H       
  33 H33           -3.3135     1.2105     2.3876 H       
  34 H34           -3.8353    -0.8034    -1.0206 H       
  35 H35           -3.0169    -1.9995     0.0187 H       
  36 H36           -1.7372     1.9410     0.6681 H       
  37 H37           -2.9909     1.7968    -0.5921 H       
  38 H38            1.8104    -0.8043     0.7276 H       
  39 H39           -9.3738     2.1267     4.7105 H       
  40 H40           -5.9540    -0.2405     5.7012 H       
  41 H41            3.0935     1.5099     1.2103 H       
  42 H42            1.3119     3.4291     1.0811 H       
  43 H43           -6.6984    -0.3282     8.0449 H       
  44 H44           -8.7713     0.8117     8.7240 H       
@<TRIPOS>BOND
   1    1   27 1
   2    2   18 2
   3    3    9 1
   4    4   20 1
   5    4   26 1
   6    5   12 2
   7    6   12 2
   8    7   13 1
   9    7   14 1
  10    7   17 1
  11    8   15 1
  12    8   16 1
  13    8   18 am
  14    9   10 1
  15    9   17 2
  16   10   11 1
  17   10   21 1
  18   11   19 2
  19   12   19 1
  20   13   15 1
  21   13   30 1
  22   13   31 1
  23   14   16 1
  24   14   32 1
  25   14   33 1
  26   15   34 1
  27   15   35 1
  28   16   36 1
  29   16   37 1
  30   17   19 1
  31   18   20 1
  32   20   22 2
  33   21   23 ar
  34   21   24 ar
  35   22   25 1
  36   22   38 1
  37   23   27 ar
  38   23   39 1
  39   24   28 ar
  40   24   40 1
  41   25   26 2
  42   25   41 1
  43   26   42 1
  44   27   29 ar
  45   28   29 ar
  46   28   43 1
  47   29   44 1

#	End of record

#	Name: 16193627
#	Creating user name:	landrgr1
#	Creation time:	28. 01. 2015 13:52

#	Modifying user name:	landrgr1
#	Modification time:	28. 01. 2015 13:52

#	Program:	corina 3.48 0006  22.01.2010

@<TRIPOS>MOLECULE
16193627
  57   61    0    0    0
SMALL
NO_CHARGES


@<TRIPOS>ATOM
   1 O1            -0.5097     6.2289     0.0384 O.2     
   2 N2            -0.0154     1.2846     0.0091 N.pl3   
   3 N3            -2.6319     6.8753     0.0524 N.am    
   4 N4             0.0021    -0.0041     0.0020 N.2     
   5 N5             1.1956     1.7226    -0.0001 N.2     
   6 N6             2.0005     0.7146    -0.0132 N.2     
   7 C7            -1.2202     2.1180     0.0196 C.3     
   8 C8            -2.0774     4.4648     0.0366 C.3     
   9 C9            -3.3021     2.6785     1.2822 C.3     
  10 C10           -3.3144     2.6920    -1.2162 C.3     
  11 C11           -0.8191     3.5944     0.0256 C.3     
  12 C12           -2.0438     1.8081     1.2713 C.3     
  13 C13           -2.0561     1.8217    -1.2272 C.3     
  14 C14           -2.9009     4.1549     1.2882 C.3     
  15 C15           -2.9133     4.1685    -1.2102 C.3     
  16 C16           -4.1380     2.3822     0.0355 C.3     
  17 C17           -1.6822     5.9190     0.0425 C.2     
  18 C18           -2.2478     8.2891     0.0582 C.3     
  19 C19            1.2542    -0.3902    -0.0120 C.2     
  20 C20           -3.5061     9.1594     0.0692 C.3     
  21 C21            1.7550    -1.8115    -0.0237 C.3     
  22 C22           -3.1110    10.6137     0.0751 C.ar    
  23 C23           -2.9357    11.2872    -1.1193 C.ar    
  24 C24           -2.9293    11.2756     1.2750 C.ar    
  25 C25           -2.5732    12.6211    -1.1138 C.ar    
  26 C26           -2.5669    12.6096     1.2804 C.ar    
  27 C27           -2.3864    13.2817     0.0860 C.ar    
  28 C28           -1.9908    14.7358     0.0920 C.3     
  29 H29           -3.8888     2.4577     2.1739 H       
  30 H30           -3.9100     2.4809    -2.1044 H       
  31 H31           -0.2236     3.8055     0.9138 H       
  32 H32           -0.2324     3.8152    -0.8661 H       
  33 H33           -2.3296     0.7563     1.2670 H       
  34 H34           -1.4483     2.0192     2.1595 H       
  35 H35           -1.4694     2.0424    -2.1189 H       
  36 H36           -2.3419     0.7698    -1.2315 H       
  37 H37           -2.3054     4.3660     2.1765 H       
  38 H38           -3.7974     4.7750     1.2961 H       
  39 H39           -3.8097     4.7885    -1.2024 H       
  40 H40           -2.3266     4.3892    -2.1019 H       
  41 H41           -4.4238     1.3303     0.0312 H       
  42 H42           -5.0344     3.0022     0.0433 H       
  43 H43           -3.5697     6.6275     0.0557 H       
  44 H44           -1.6523     8.5001     0.9464 H       
  45 H45           -1.6611     8.5098    -0.8335 H       
  46 H46           -4.1016     8.9483    -0.8190 H       
  47 H47           -4.0928     8.9387     0.9609 H       
  48 H48            1.8658    -2.1492    -1.0541 H       
  49 H49            2.7201    -1.8608     0.4806 H       
  50 H50            1.0414    -2.4524     0.4941 H       
  51 H51           -3.0816    10.7710    -2.0567 H       
  52 H52           -3.0709    10.7507     2.2081 H       
  53 H53           -2.4355    13.1471    -2.0470 H       
  54 H54           -2.4253    13.1269     2.2179 H       
  55 H55           -2.8870    15.3562     0.0992 H       
  56 H56           -1.3957    14.9468     0.9804 H       
  57 H57           -1.4035    14.9562    -0.7995 H       
@<TRIPOS>BOND
   1    1   17 2
   2    2    4 1
   3    2    5 1
   4    2    7 1
   5    3   17 am
   6    3   18 1
   7    3   43 1
   8    4   19 2
   9    5    6 2
  10    6   19 1
  11    7   11 1
  12    7   12 1
  13    7   13 1
  14    8   11 1
  15    8   14 1
  16    8   15 1
  17    8   17 1
  18    9   12 1
  19    9   14 1
  20    9   16 1
  21    9   29 1
  22   10   13 1
  23   10   15 1
  24   10   16 1
  25   10   30 1
  26   11   31 1
  27   11   32 1
  28   12   33 1
  29   12   34 1
  30   13   35 1
  31   13   36 1
  32   14   37 1
  33   14   38 1
  34   15   39 1
  35   15   40 1
  36   16   41 1
  37   16   42 1
  38   18   20 1
  39   18   44 1
  40   18   45 1
  41   19   21 1
  42   20   22 1
  43   20   46 1
  44   20   47 1
  45   21   48 1
  46   21   49 1
  47   21   50 1
  48   22   23 ar
  49   22   24 ar
  50   23   25 ar
  51   23   51 1
  52   24   26 ar
  53   24   52 1
  54   25   27 ar
  55   25   53 1
  56   26   27 ar
  57   26   54 1
  58   27   28 1
  59   28   55 1
  60   28   56 1
  61   28   57 1

#	End of record

#	Name: 16193623
#	Creating user name:	landrgr1
#	Creation time:	28. 01. 2015 13:52

#	Modifying user name:	landrgr1
#	Modification time:	28. 01. 2015 13:52

#	Program:	corina 3.48 0006  22.01.2010

@<TRIPOS>MOLECULE
16193623
  70   74    0    0    0
SMALL
NO_CHARGES


@<TRIPOS>ATOM
   1 O1            -6.5221    -7.7401     2.1672 O.2     
   2 O2            -4.5404    -6.1704     4.5015 O.2     
   3 O3            -7.2177    -2.6373     4.5453 O.2     
   4 O4            -3.2909    -2.4559     0.7248 O.2     
   5 O5            -0.0161     1.3388     0.0094 O.3     
   6 N6            -6.1335    -9.8222     2.8273 N.am    
   7 N7            -4.6944   -12.1536     2.3186 N.3     
   8 N8            -6.7017    -6.5916     4.5182 N.am    
   9 N9            -5.8407    -4.3955     4.5231 N.am    
  10 N10           -1.5874    -1.2008     1.3915 N.am    
  11 C11           -6.0605   -10.3186     1.4447 C.3     
  12 C12           -5.9377   -10.7835     3.9231 C.3     
  13 C13           -4.7618   -11.1154     1.2815 C.3     
  14 C14           -4.6438   -11.5620     3.6623 C.3     
  15 C15           -6.3680    -8.5199     3.0832 C.2     
  16 C16           -6.4387    -8.0327     4.5075 C.3     
  17 C17           -3.6076   -13.0046     2.1051 C.ar    
  18 C18           -8.0107    -6.1322     4.5384 C.ar    
  19 C19           -5.6724    -5.7271     4.5139 C.2     
  20 C20           -4.6641    -3.5227     4.5170 C.3     
  21 C21           -8.2408    -4.7451     4.5485 C.ar    
  22 C22           -7.0739    -3.8447     4.5369 C.2     
  23 C23           -4.2681    -3.2106     3.0725 C.3     
  24 C24           -3.3660   -14.0576     2.9783 C.ar    
  25 C25           -2.7693   -12.8033     1.0159 C.ar    
  26 C26           -9.0868    -7.0057     4.5484 C.ar    
  27 C27           -9.5440    -4.2550     4.5684 C.ar    
  28 C28           -3.0393    -2.2990     3.0661 C.3     
  29 C29           -2.2905   -14.8971     2.7643 C.ar    
  30 C30           -1.6956   -13.6466     0.8078 C.ar    
  31 C31          -10.3745    -6.5069     4.5681 C.ar    
  32 C32          -10.6025    -5.1397     4.5780 C.ar    
  33 C33           -1.4546   -14.6904     1.6822 C.ar    
  34 C34           -2.6493    -1.9916     1.6433 C.2     
  35 C35           -1.2082    -0.9019     0.0083 C.3     
  36 C36            0.0021    -0.0041     0.0020 C.2     
  37 C37            1.2839    -0.4117    -0.0124 C.2     
  38 C38            2.0843     0.7537    -0.0138 C.2     
  39 C39            1.2438     1.8038    -0.0001 C.2     
  40 H40           -6.9146   -10.9649     1.2422 H       
  41 H41           -6.0629    -9.4765     0.7527 H       
  42 H42           -5.8588   -10.2488     4.8696 H       
  43 H43           -6.7799   -11.4745     3.9588 H       
  44 H44           -3.9085   -10.4447     1.3822 H       
  45 H45           -4.7433   -11.5830     0.2971 H       
  46 H46           -4.5397   -12.3535     4.4044 H       
  47 H47           -3.7921   -10.8851     3.7298 H       
  48 H48           -5.4910    -8.2328     5.0075 H       
  49 H49           -7.2419    -8.5525     5.0299 H       
  50 H50           -4.8976    -2.5944     5.0384 H       
  51 H51           -3.8372    -4.0239     5.0202 H       
  52 H52           -4.0346    -4.1389     2.5511 H       
  53 H53           -5.0949    -2.7094     2.5693 H       
  54 H54           -4.0182   -14.2193     3.8238 H       
  55 H55           -2.9572   -11.9885     0.3324 H       
  56 H56           -8.9189    -8.0726     4.5405 H       
  57 H57           -3.2728    -1.3708     3.5875 H       
  58 H58           -2.2125    -2.8003     3.5693 H       
  59 H59           -9.7248    -3.1903     4.5766 H       
  60 H60           -2.1018   -15.7157     3.4430 H       
  61 H61           -1.0437   -13.4908    -0.0391 H       
  62 H62          -11.2120    -7.1887     4.5755 H       
  63 H63          -11.6151    -4.7647     4.5937 H       
  64 H64           -0.6142   -15.3484     1.5171 H       
  65 H65           -1.0742    -0.8294     2.1261 H       
  66 H66           -0.9747    -1.8302    -0.5131 H       
  67 H67           -2.0351    -0.4007    -0.4949 H       
  68 H68            1.6343    -1.4332    -0.0207 H       
  69 H69            3.1636     0.7932    -0.0236 H       
  70 H70            1.5330     2.8444     0.0027 H       
@<TRIPOS>BOND
   1    1   15 2
   2    2   19 2
   3    3   22 2
   4    4   34 2
   5    5   36 1
   6    5   39 1
   7    6   11 1
   8    6   12 1
   9    6   15 am
  10    7   13 1
  11    7   14 1
  12    7   17 1
  13    8   16 1
  14    8   18 1
  15    8   19 am
  16    9   19 am
  17    9   20 1
  18    9   22 am
  19   10   34 am
  20   10   35 1
  21   10   65 1
  22   11   13 1
  23   11   40 1
  24   11   41 1
  25   12   14 1
  26   12   42 1
  27   12   43 1
  28   13   44 1
  29   13   45 1
  30   14   46 1
  31   14   47 1
  32   15   16 1
  33   16   48 1
  34   16   49 1
  35   17   24 ar
  36   17   25 ar
  37   18   21 ar
  38   18   26 ar
  39   20   23 1
  40   20   50 1
  41   20   51 1
  42   21   22 1
  43   21   27 ar
  44   23   28 1
  45   23   52 1
  46   23   53 1
  47   24   29 ar
  48   24   54 1
  49   25   30 ar
  50   25   55 1
  51   26   31 ar
  52   26   56 1
  53   27   32 ar
  54   27   59 1
  55   28   34 1
  56   28   57 1
  57   28   58 1
  58   29   33 ar
  59   29   60 1
  60   30   33 ar
  61   30   61 1
  62   31   32 ar
  63   31   62 1
  64   32   63 1
  65   33   64 1
  66   35   36 1
  67   35   66 1
  68   35   67 1
  69   36   37 2
  70   37   38 1
  71   37   68 1
  72   38   39 2
  73   38   69 1
  74   39   70 1

#	End of record

#	Name: 16193565
#	Creating user name:	landrgr1
#	Creation time:	28. 01. 2015 13:52

#	Modifying user name:	landrgr1
#	Modification time:	28. 01. 2015 13:52

#	Program:	corina 3.48 0006  22.01.2010

@<TRIPOS>MOLECULE
16193565
  65   67    0    0    0
SMALL
NO_CHARGES


@<TRIPOS>ATOM
   1 S1            -0.0291     1.6952     0.3157 S.3     
   2 S2             1.0842    -3.8213    -2.1751 S.2     
   3 S3             2.5539     3.1338     1.1437 S.2     
   4 O4            -2.1641    -0.4570    -0.8154 O.2     
   5 O5            -1.7726    -3.8603     0.2627 O.3     
   6 O6            -3.4446    -3.5722    -4.9613 O.3     
   7 N7             2.1895     0.6872    -0.0152 N.am    
   8 N8            -0.6390    -1.9665    -1.4210 N.am    
   9 N9             1.6321    -1.4931    -1.0618 N.am    
  10 C10            1.3336    -0.2540    -0.5050 C.2     
  11 C11            0.0124     0.0919    -0.4261 C.2     
  12 C12           -0.9902    -0.7758    -0.8904 C.2     
  13 C13           -1.6256    -2.8456    -1.8902 C.ar    
  14 C14            0.6600    -2.3068    -1.4987 C.2     
  15 C15            3.5740     0.4720    -0.0300 C.ar    
  16 C16            1.6801     1.8201     0.4793 C.2     
  17 C17           -2.1842    -3.7895    -1.0320 C.ar    
  18 C18           -2.0510    -2.7730    -3.2084 C.ar    
  19 C19            4.3287     0.8731    -1.1243 C.ar    
  20 C20            4.1949    -0.1376     1.0520 C.ar    
  21 C21           -3.0267    -3.6430    -3.6693 C.ar    
  22 C22           -3.1590    -4.6566    -1.4979 C.ar    
  23 C23           -3.5775    -4.5857    -2.8133 C.ar    
  24 C24            5.6933     0.6600    -1.1357 C.ar    
  25 C25            5.5598    -0.3479     1.0347 C.ar    
  26 C26            6.3079     0.0475    -0.0591 C.ar    
  27 C27           -2.3889    -4.8525     1.0860 C.3     
  28 C28           -4.4529    -4.4992    -5.3687 C.3     
  29 H29            2.5579    -1.7732    -1.1346 H       
  30 H30           -1.6227    -2.0391    -3.8750 H       
  31 H31            3.8491     1.3508    -1.9658 H       
  32 H32            3.6112    -0.4466     1.9065 H       
  33 H33           -3.5925    -5.3887    -0.8327 H       
  34 H34           -4.3376    -5.2626    -3.1744 H       
  35 H35            6.2808     0.9717    -1.9866 H       
  36 H36            6.0434    -0.8220     1.8760 H       
  37 H37            7.3750    -0.1187    -0.0706 H       
  38 H38           -3.4630    -4.6724     1.1296 H       
  39 H39           -2.2029    -5.8406     0.6651 H       
  40 H40           -1.9708    -4.8012     2.0914 H       
  41 H41           -4.6943    -4.3352    -6.4189 H       
  42 H42           -4.0863    -5.5169    -5.2349 H       
  43 H43           -5.3473    -4.3527    -4.7632 H       
  44 N44           14.6761    10.8671     9.3019 N.3     
  45 C45           14.4928     9.4341     9.5681 C.3     
  46 C46           16.1023    11.2166     9.2605 C.3     
  47 C47           14.0009    11.2622     8.0585 C.3     
  48 C48           13.0491     9.1770    10.0047 C.3     
  49 C49           16.7154    11.0229    10.6488 C.3     
  50 C50           13.8569    12.7848     8.0180 C.3     
  51 H51           14.7049     8.8662     8.6622 H       
  52 H52           15.1731     9.1217    10.3604 H       
  53 H53           16.6135    10.5730     8.5445 H       
  54 H54           16.2126    12.2576     8.9566 H       
  55 H55           14.5901    10.9301     7.2038 H       
  56 H56           13.0133    10.8026     8.0196 H       
  57 H57           12.8045     9.8220    10.8486 H       
  58 H58           12.3750     9.3921     9.1756 H       
  59 H59           12.9394     8.1338    10.3010 H       
  60 H60           16.2042    11.6665    11.3648 H       
  61 H61           16.6051     9.9819    10.9527 H       
  62 H62           17.7736    11.2823    10.6181 H       
  63 H63           13.2601    13.1161     8.8679 H       
  64 H64           14.8440    13.2446     8.0660 H       
  65 H65           13.3639    13.0786     7.0914 H       
@<TRIPOS>BOND
   1    1   11 1
   2    1   16 1
   3    2   14 2
   4    3   16 2
   5    4   12 2
   6    5   17 1
   7    5   27 1
   8    6   21 1
   9    6   28 1
  10    7   10 1
  11    7   15 1
  12    7   16 am
  13    8   12 am
  14    8   13 1
  15    8   14 am
  16    9   10 1
  17    9   14 am
  18    9   29 1
  19   10   11 2
  20   11   12 1
  21   13   17 ar
  22   13   18 ar
  23   15   19 ar
  24   15   20 ar
  25   17   22 ar
  26   18   21 ar
  27   18   30 1
  28   19   24 ar
  29   19   31 1
  30   20   25 ar
  31   20   32 1
  32   21   23 ar
  33   22   23 ar
  34   22   33 1
  35   23   34 1
  36   24   26 ar
  37   24   35 1
  38   25   26 ar
  39   25   36 1
  40   26   37 1
  41   27   38 1
  42   27   39 1
  43   27   40 1
  44   28   41 1
  45   28   42 1
  46   28   43 1
  47   44   45 1
  48   44   46 1
  49   44   47 1
  50   45   48 1
  51   45   51 1
  52   45   52 1
  53   46   49 1
  54   46   53 1
  55   46   54 1
  56   47   50 1
  57   47   55 1
  58   47   56 1
  59   48   57 1
  60   48   58 1
  61   48   59 1
  62   49   60 1
  63   49   61 1
  64   49   62 1
  65   50   63 1
  66   50   64 1
  67   50   65 1

#	End of record

#	Name: 16193496
#	Creating user name:	landrgr1
#	Creation time:	28. 01. 2015 13:52

#	Modifying user name:	landrgr1
#	Modification time:	28. 01. 2015 13:52

#	Program:	corina 3.48 0006  22.01.2010

@<TRIPOS>MOLECULE
16193496
  73   76    0    0    0
SMALL
NO_CHARGES


@<TRIPOS>ATOM
   1 O1            -0.0175     1.4400     0.0100 O.3     
   2 O2            -3.9180    -1.2359     0.8285 O.2     
   3 O3            -5.7005    -2.6766    -1.7380 O.2     
   4 O4            -9.4638    -2.4032     0.5889 O.2     
   5 O5            -8.3676    -6.5032    -1.4902 O.2     
   6 O6            -6.1356   -13.8368    -1.6685 O.3     
   7 O7            -8.4957   -14.9831    -0.8298 O.3     
   8 N8            -2.3962    -0.2196    -0.4258 N.am    
   9 N9            -6.0352    -0.7896    -0.6536 N.am    
  10 N10           -7.5769    -2.5738    -0.5936 N.am    
  11 N11           -7.3482    -7.4001     0.2643 N.am    
  12 C12            0.0021    -0.0041     0.0020 C.3     
  13 C13            1.1520    -0.3885     0.9592 C.3     
  14 C14            2.0729     0.8522     0.9571 C.3     
  15 C15            1.3704     1.8394    -0.0011 C.3     
  16 C16           -1.3278    -0.5576     0.5178 C.3     
  17 C17           -4.7619    -0.2596    -1.1474 C.3     
  18 C18           -3.6628    -0.6073    -0.1768 C.2     
  19 C19           -6.8309    -0.0081     0.1717 C.ar    
  20 C20           -6.4240    -2.0263    -1.0089 C.2     
  21 C21           -8.0491    -0.5361     0.6344 C.ar    
  22 C22           -7.9259    -3.9289    -1.0274 C.3     
  23 C23           -8.4212    -1.8999     0.2173 C.2     
  24 C24           -7.3738    -4.9436    -0.0241 C.3     
  25 C25           -6.4519     1.2714     0.5463 C.ar    
  26 C26           -8.8681     0.2251     1.4644 C.ar    
  27 C27           -7.7327    -6.3375    -0.4702 C.2     
  28 C28           -7.2732     2.0161     1.3700 C.ar    
  29 C29           -8.4743     1.4966     1.8267 C.ar    
  30 C30           -7.6971    -8.7553    -0.1694 C.3     
  31 C31           -7.1450    -9.7699     0.8339 C.3     
  32 C32           -7.5039   -11.1639     0.3877 C.ar    
  33 C33           -6.6479   -11.8645    -0.4414 C.ar    
  34 C34           -8.6859   -11.7413     0.8130 C.ar    
  35 C35           -6.9764   -13.1463    -0.8525 C.ar    
  36 C36           -9.0197   -13.0197     0.4065 C.ar    
  37 C37           -8.1688   -13.7254    -0.4290 C.ar    
  38 C38           -4.9299   -13.1795    -2.0635 C.3     
  39 C39           -9.7351   -15.5135    -0.3560 C.3     
  40 H40            0.2045    -0.3753    -1.0026 H       
  41 H41            0.7676    -0.5771     1.9616 H       
  42 H42            1.6861    -1.2612     0.5835 H       
  43 H43            2.1438     1.2770     1.9584 H       
  44 H44            3.0622     0.5929     0.5803 H       
  45 H45            1.7827     1.7510    -1.0063 H       
  46 H46            1.4741     2.8613     0.3638 H       
  47 H47           -1.5506    -0.1200     1.4909 H       
  48 H48           -1.2574    -1.6411     0.6141 H       
  49 H49           -2.1921     0.2832    -1.2299 H       
  50 H50           -4.5391    -0.6972    -2.1205 H       
  51 H51           -4.8322     0.8239    -1.2438 H       
  52 H52           -9.0103    -4.0250    -1.0819 H       
  53 H53           -7.4944    -4.1182    -2.0103 H       
  54 H54           -6.2894    -4.8474     0.0305 H       
  55 H55           -7.8052    -4.7543     0.9589 H       
  56 H56           -5.5177     1.6845     0.1957 H       
  57 H57           -9.8047    -0.1769     1.8216 H       
  58 H58           -6.9764     3.0128     1.6613 H       
  59 H59           -9.1061     2.0912     2.4700 H       
  60 H60           -8.7815    -8.8514    -0.2240 H       
  61 H61           -7.2657    -8.9446    -1.1524 H       
  62 H62           -6.8404    -7.2677     1.0801 H       
  63 H63           -6.0606    -9.6738     0.8884 H       
  64 H64           -7.5764    -9.5806     1.8168 H       
  65 H65           -5.7232   -11.4127    -0.7689 H       
  66 H66           -9.3498   -11.1925     1.4645 H       
  67 H67           -9.9434   -13.4687     0.7405 H       
  68 H68           -4.3520   -13.8388    -2.7112 H       
  69 H69           -5.1748   -12.2641    -2.6023 H       
  70 H70           -4.3430   -12.9341    -1.1783 H       
  71 H71           -9.7231   -15.5471     0.7335 H       
  72 H72          -10.5543   -14.8772    -0.6909 H       
  73 H73           -9.8733   -16.5207    -0.7490 H       
@<TRIPOS>BOND
   1    1   12 1
   2    1   15 1
   3    2   18 2
   4    3   20 2
   5    4   23 2
   6    5   27 2
   7    6   35 1
   8    6   38 1
   9    7   37 1
  10    7   39 1
  11    8   16 1
  12    8   18 am
  13    8   49 1
  14    9   17 1
  15    9   19 1
  16    9   20 am
  17   10   20 am
  18   10   22 1
  19   10   23 am
  20   11   27 am
  21   11   30 1
  22   11   62 1
  23   12   13 1
  24   12   16 1
  25   12   40 1
  26   13   14 1
  27   13   41 1
  28   13   42 1
  29   14   15 1
  30   14   43 1
  31   14   44 1
  32   15   45 1
  33   15   46 1
  34   16   47 1
  35   16   48 1
  36   17   18 1
  37   17   50 1
  38   17   51 1
  39   19   21 ar
  40   19   25 ar
  41   21   23 1
  42   21   26 ar
  43   22   24 1
  44   22   52 1
  45   22   53 1
  46   24   27 1
  47   24   54 1
  48   24   55 1
  49   25   28 ar
  50   25   56 1
  51   26   29 ar
  52   26   57 1
  53   28   29 ar
  54   28   58 1
  55   29   59 1
  56   30   31 1
  57   30   60 1
  58   30   61 1
  59   31   32 1
  60   31   63 1
  61   31   64 1
  62   32   33 ar
  63   32   34 ar
  64   33   35 ar
  65   33   65 1
  66   34   36 ar
  67   34   66 1
  68   35   37 ar
  69   36   37 ar
  70   36   67 1
  71   38   68 1
  72   38   69 1
  73   38   70 1
  74   39   71 1
  75   39   72 1
  76   39   73 1

#	End of record

#	Name: 16193492
#	Creating user name:	landrgr1
#	Creation time:	28. 01. 2015 13:52

#	Modifying user name:	landrgr1
#	Modification time:	28. 01. 2015 13:52

#	Program:	corina 3.48 0006  22.01.2010

@<TRIPOS>MOLECULE
16193492
  68   70    0    0    0
SMALL
NO_CHARGES


@<TRIPOS>ATOM
   1 S1            -0.0219     1.7628     0.0117 S.3     
   2 S2             1.0327    -4.3003    -0.0309 S.2     
   3 S3             2.5815     3.3905    -0.0044 S.2     
   4 O4            -2.1843    -0.6441     0.0191 O.2     
   5 O5            -1.6608    -3.2949     2.3853 O.3     
   6 O6            -3.6687    -5.1889    -2.3633 O.3     
   7 N7             2.1895     0.6872    -0.0152 N.am    
   8 N8            -0.6731    -2.2834    -0.0038 N.am    
   9 N9             1.6071    -1.7254    -0.0221 N.am    
  10 C10            1.3217    -0.3642    -0.0125 C.2     
  11 C11            0.0021    -0.0041     0.0020 C.2     
  12 C12            3.5740     0.4720    -0.0300 C.ar    
  13 C13           -1.0118    -0.9766     0.0065 C.2     
  14 C14            0.6244    -2.6377    -0.0181 C.2     
  15 C15            1.6917     1.9279    -0.0037 C.2     
  16 C16           -1.6711    -3.2685     0.0009 C.ar    
  17 C17            4.2733     0.3584     1.1644 C.ar    
  18 C18            4.2486     0.3662    -1.2387 C.ar    
  19 C19           -2.1556    -3.7649     1.2085 C.ar    
  20 C20           -2.1815    -3.7462    -1.1971 C.ar    
  21 C21            5.6377     0.1458     1.1465 C.ar    
  22 C22            3.5441     0.4674     2.4787 C.3     
  23 C23            5.6134     0.1535    -1.2501 C.ar    
  24 C24            6.3078     0.0466    -0.0593 C.ar    
  25 C25           -3.1678    -4.7200    -1.1893 C.ar    
  26 C26           -3.1415    -4.7382     1.2103 C.ar    
  27 C27           -3.6447    -5.2164     0.0151 C.ar    
  28 C28           -2.2042    -3.8492     3.5851 C.3     
  29 C29           -4.6832    -6.1920    -2.2813 C.3     
  30 H30            2.5314    -2.0193    -0.0328 H       
  31 H31            3.7067     0.4496    -2.1693 H       
  32 H32           -1.8109    -3.3595    -2.1349 H       
  33 H33            6.1821     0.0574     2.0751 H       
  34 H34            3.2097    -0.5216     2.7918 H       
  35 H35            4.2142     0.8801     3.2329 H       
  36 H36            2.6809     1.1227     2.3620 H       
  37 H37            6.1387     0.0711    -2.1901 H       
  38 H38            7.3749    -0.1190    -0.0707 H       
  39 H39           -3.5172    -5.1237     2.1466 H       
  40 H40           -4.4138    -5.9746     0.0190 H       
  41 H41           -3.2766    -3.6575     3.6208 H       
  42 H42           -2.0266    -4.9246     3.6014 H       
  43 H43           -1.7238    -3.3885     4.4483 H       
  44 H44           -4.2893    -7.0653    -1.7613 H       
  45 H45           -5.5396    -5.7987    -1.7337 H       
  46 H46           -4.9943    -6.4772    -3.2863 H       
  47 N47           14.6760    11.1238    11.6588 N.3     
  48 C48           14.4927     9.6908    11.9250 C.3     
  49 C49           16.1022    11.4733    11.6174 C.3     
  50 C50           14.0008    11.5189    10.4155 C.3     
  51 C51           13.0491     9.4337    12.3616 C.3     
  52 C52           16.7153    11.2796    13.0058 C.3     
  53 C53           13.8568    13.0415    10.3750 C.3     
  54 H54           14.7049     9.1229    11.0191 H       
  55 H55           15.1730     9.3784    12.7173 H       
  56 H56           16.6134    10.8297    10.9015 H       
  57 H57           16.2125    12.5143    11.3135 H       
  58 H58           14.5901    11.1868     9.5607 H       
  59 H59           13.0132    11.0593    10.3765 H       
  60 H60           12.8044    10.0787    13.2056 H       
  61 H61           12.3749     9.6488    11.5326 H       
  62 H62           12.9393     8.3905    12.6579 H       
  63 H63           16.2042    11.9232    13.7217 H       
  64 H64           16.6051    10.2387    13.3096 H       
  65 H65           17.7736    11.5390    12.9750 H       
  66 H66           13.2601    13.3728    11.2248 H       
  67 H67           14.8440    13.5013    10.4229 H       
  68 H68           13.3638    13.3353     9.4483 H       
@<TRIPOS>BOND
   1    1   11 1
   2    1   15 1
   3    2   14 2
   4    3   15 2
   5    4   13 2
   6    5   19 1
   7    5   28 1
   8    6   25 1
   9    6   29 1
  10    7   10 1
  11    7   12 1
  12    7   15 am
  13    8   13 am
  14    8   14 am
  15    8   16 1
  16    9   10 1
  17    9   14 am
  18    9   30 1
  19   10   11 2
  20   11   13 1
  21   12   17 ar
  22   12   18 ar
  23   16   19 ar
  24   16   20 ar
  25   17   21 ar
  26   17   22 1
  27   18   23 ar
  28   18   31 1
  29   19   26 ar
  30   20   25 ar
  31   20   32 1
  32   21   24 ar
  33   21   33 1
  34   22   34 1
  35   22   35 1
  36   22   36 1
  37   23   24 ar
  38   23   37 1
  39   24   38 1
  40   25   27 ar
  41   26   27 ar
  42   26   39 1
  43   27   40 1
  44   28   41 1
  45   28   42 1
  46   28   43 1
  47   29   44 1
  48   29   45 1
  49   29   46 1
  50   47   48 1
  51   47   49 1
  52   47   50 1
  53   48   51 1
  54   48   54 1
  55   48   55 1
  56   49   52 1
  57   49   56 1
  58   49   57 1
  59   50   53 1
  60   50   58 1
  61   50   59 1
  62   51   60 1
  63   51   61 1
  64   51   62 1
  65   52   63 1
  66   52   64 1
  67   52   65 1
  68   53   66 1
  69   53   67 1
  70   53   68 1

#	End of record

#	Name: 16193437
#	Creating user name:	landrgr1
#	Creation time:	28. 01. 2015 13:52

#	Modifying user name:	landrgr1
#	Modification time:	28. 01. 2015 13:52

#	Program:	corina 3.48 0006  22.01.2010

@<TRIPOS>MOLECULE
16193437
  43   44    0    0    0
SMALL
NO_CHARGES


@<TRIPOS>ATOM
   1 S1             0.0154     1.8203     0.0672 S.3     
   2 O2             5.0514    -0.9519    -3.9384 O.3     
   3 O3            -4.0079    -0.6403    -3.3640 O.2     
   4 O4            -5.5123    -1.5238    -2.1779 O.2     
   5 O5             4.4371     2.8122     0.0986 O.2     
   6 N6             2.6161     1.2041    -0.4206 N.pl3   
   7 N7            -4.3867    -1.0720    -2.2899 N.pl3   
   8 N8             4.1068     4.8959     0.7984 N.am    
   9 N9             0.5538     5.3264     0.8682 N.1     
  10 C10           -1.3544    -0.5119    -0.1562 C.ar    
  11 C11            0.0382     0.0471    -0.2948 C.3     
  12 C12            3.0038     1.1311    -1.7620 C.ar    
  13 C13           -2.2016    -0.5350    -1.2480 C.ar    
  14 C14            1.7402     2.1714    -0.0141 C.2     
  15 C15           -1.7826    -1.0067     1.0617 C.ar    
  16 C16           -3.4793    -1.0477    -1.1208 C.ar    
  17 C17            3.8451     0.1128    -2.1877 C.ar    
  18 C18           -3.0598    -1.5194     1.1888 C.ar    
  19 C19            2.5428     2.0748    -2.6719 C.ar    
  20 C20           -3.9093    -1.5372     0.0981 C.ar    
  21 C21            4.2273     0.0438    -3.5184 C.ar    
  22 C22            2.9259     2.0026    -3.9968 C.ar    
  23 C23            3.7683     0.9923    -4.4213 C.ar    
  24 C24            2.2128     3.4395     0.3373 C.2     
  25 C25            3.6508     3.6911     0.4023 C.2     
  26 C26            5.4041    -0.9613    -5.3231 C.3     
  27 C27            1.2877     4.4917     0.6333 C.1     
  28 H28            0.3937    -0.1113    -1.3130 H       
  29 H29            0.7038    -0.4581     0.4051 H       
  30 H30           -1.8657    -0.1522    -2.2004 H       
  31 H31           -1.1190    -0.9931     1.9136 H       
  32 H32            2.9687     0.5682     0.2214 H       
  33 H33            4.2017    -0.6244    -1.4835 H       
  34 H34           -3.3942    -1.9063     2.1401 H       
  35 H35            1.8842     2.8649    -2.3428 H       
  36 H36           -4.9075    -1.9375     0.1975 H       
  37 H37            2.5663     2.7367    -4.7026 H       
  38 H38            4.0662     0.9385    -5.4581 H       
  39 H39            6.0640    -1.8053    -5.5242 H       
  40 H40            4.5016    -1.0537    -5.9273 H       
  41 H41            5.9158    -0.0322    -5.5741 H       
  42 H42            5.0614     5.0630     0.8416 H       
  43 H43            3.4805     5.5960     1.0404 H       
@<TRIPOS>BOND
   1    1   11 1
   2    1   14 1
   3    2   21 1
   4    2   26 1
   5    3    7 2
   6    4    7 2
   7    5   25 2
   8    6   12 1
   9    6   14 1
  10    6   32 1
  11    7   16 1
  12    8   25 am
  13    8   42 1
  14    8   43 1
  15    9   27 3
  16   10   11 1
  17   10   13 ar
  18   10   15 ar
  19   11   28 1
  20   11   29 1
  21   12   17 ar
  22   12   19 ar
  23   13   16 ar
  24   13   30 1
  25   14   24 2
  26   15   18 ar
  27   15   31 1
  28   16   20 ar
  29   17   21 ar
  30   17   33 1
  31   18   20 ar
  32   18   34 1
  33   19   22 ar
  34   19   35 1
  35   20   36 1
  36   21   23 ar
  37   22   23 ar
  38   22   37 1
  39   23   38 1
  40   24   25 1
  41   24   27 1
  42   26   39 1
  43   26   40 1
  44   26   41 1

#	End of record

#	Name: 16193372
#	Creating user name:	landrgr1
#	Creation time:	28. 01. 2015 13:52

#	Modifying user name:	landrgr1
#	Modification time:	28. 01. 2015 13:52

#	Program:	corina 3.48 0006  22.01.2010

@<TRIPOS>MOLECULE
16193372
  56   58    0    0    0
SMALL
NO_CHARGES


@<TRIPOS>ATOM
   1 O1            -0.0163     1.3488     0.0095 O.3     
   2 O2             2.2549    -2.6815    -0.0410 O.2     
   3 O3             2.6369    10.7089     2.4121 O.3     
   4 O4             2.4165    12.0816     0.0342 O.3     
   5 O5            -0.0965     3.9543     0.0242 O.2     
   6 N6             0.0476    -2.8027    -0.0148 N.am    
   7 N7             2.0879     4.3415     0.0054 N.am    
   8 C8            -1.1831    -2.1784     0.0012 C.ar    
   9 C9            -1.2493    -0.7739     0.0098 C.ar    
  10 C10            0.0021    -0.0041     0.0020 C.2     
  11 C11            0.1123    -4.2662    -0.0243 C.3     
  12 C12            1.1877    -2.0912    -0.0274 C.2     
  13 C13            3.2299     6.5042     0.0061 C.3     
  14 C14            1.1845    -0.6878    -0.0134 C.2     
  15 C15           -2.3597    -2.9192     0.0084 C.ar    
  16 C16            1.8763     5.7911     0.0152 C.3     
  17 C17           -2.4910    -0.1347     0.0251 C.ar    
  18 C18            3.0122     7.9953     0.0162 C.ar    
  19 C19            0.1205    -4.7671    -1.4699 C.3     
  20 C20           -3.5775    -2.2737     0.0226 C.ar    
  21 C21            1.2480     2.0149     0.0010 C.3     
  22 C22           -3.6438    -0.8877     0.0316 C.ar    
  23 C23            2.9240     8.6713     1.2189 C.ar    
  24 C24            1.0303     3.5060     0.0111 C.2     
  25 C25            2.9068     8.6851    -1.1773 C.ar    
  26 C26            2.7243    10.0425     1.2299 C.ar    
  27 C27            2.6130    10.7359     0.0286 C.ar    
  28 C28            2.7080    10.0531    -1.1734 C.ar    
  29 C29            2.7598     9.9322     3.6053 C.3     
  30 C30            2.3116    12.7272    -1.2363 C.3     
  31 H31            1.0226    -4.5929     0.4786 H       
  32 H32           -0.7556    -4.6717     0.4958 H       
  33 H33            3.7993     6.2141     0.8892 H       
  34 H34            3.7823     6.2237    -0.8907 H       
  35 H35            2.1193    -0.1470    -0.0194 H       
  36 H36            1.3069     6.0811    -0.8678 H       
  37 H37            1.3239     6.0716     0.9121 H       
  38 H38           -2.3195    -3.9984     0.0015 H       
  39 H39           -2.5467     0.9438     0.0322 H       
  40 H40            0.1686    -5.8560    -1.4770 H       
  41 H41           -0.7897    -4.4404    -1.9728 H       
  42 H42            0.9884    -4.3617    -1.9900 H       
  43 H43           -4.4893    -2.8525     0.0282 H       
  44 H44            1.8174     1.7248     0.8840 H       
  45 H45            1.8004     1.7344    -0.8959 H       
  46 H46           -4.6056    -0.3965     0.0434 H       
  47 H47            2.9891     3.9830    -0.0051 H       
  48 H48            3.0104     8.1307     2.1498 H       
  49 H49            2.9804     8.1540    -2.1148 H       
  50 H50            2.6264    10.5896    -2.1071 H       
  51 H51            2.6719    10.5846     4.4741 H       
  52 H52            1.9700     9.1816     3.6332 H       
  53 H53            3.7313     9.4382     3.6188 H       
  54 H54            3.2296    12.5677    -1.8018 H       
  55 H55            1.4684    12.3104    -1.7871 H       
  56 H56            2.1567    13.7961    -1.0890 H       
@<TRIPOS>BOND
   1    1   10 1
   2    1   21 1
   3    2   12 2
   4    3   26 1
   5    3   29 1
   6    4   27 1
   7    4   30 1
   8    5   24 2
   9    6    8 1
  10    6   11 1
  11    6   12 am
  12    7   16 1
  13    7   24 am
  14    7   47 1
  15    8    9 ar
  16    8   15 ar
  17    9   10 1
  18    9   17 ar
  19   10   14 2
  20   11   19 1
  21   11   31 1
  22   11   32 1
  23   12   14 1
  24   13   16 1
  25   13   18 1
  26   13   33 1
  27   13   34 1
  28   14   35 1
  29   15   20 ar
  30   15   38 1
  31   16   36 1
  32   16   37 1
  33   17   22 ar
  34   17   39 1
  35   18   23 ar
  36   18   25 ar
  37   19   40 1
  38   19   41 1
  39   19   42 1
  40   20   22 ar
  41   20   43 1
  42   21   24 1
  43   21   44 1
  44   21   45 1
  45   22   46 1
  46   23   26 ar
  47   23   48 1
  48   25   28 ar
  49   25   49 1
  50   26   27 ar
  51   27   28 ar
  52   28   50 1
  53   29   51 1
  54   29   52 1
  55   29   53 1
  56   30   54 1
  57   30   55 1
  58   30   56 1

#	End of record

#	Name: 16193357
#	Creating user name:	landrgr1
#	Creation time:	28. 01. 2015 13:52

#	Modifying user name:	landrgr1
#	Modification time:	28. 01. 2015 13:52

#	Program:	corina 3.48 0006  22.01.2010

@<TRIPOS>MOLECULE
16193357
  53   55    0    0    0
SMALL
NO_CHARGES


@<TRIPOS>ATOM
   1 O1            -0.3003     1.7267     0.8872 O.3     
   2 O2            -4.2974    -0.9218     1.1485 O.2     
   3 O3            -8.3875    -0.2624     0.5531 O.2     
   4 O4           -10.9908    -1.3552    -1.3857 O.2     
   5 O5           -14.9549    -1.8037     0.6996 O.2     
   6 N6            -2.6321     0.1235     0.1159 N.am    
   7 N7            -8.4535    -0.2597    -1.6654 N.am    
   8 N8           -12.9415    -2.2855    -0.0978 N.am    
   9 C9            -0.2953     0.2840     0.8195 C.3     
  10 C10            0.7350    -0.1575     1.8824 C.3     
  11 C11            1.6633     1.0679     2.0371 C.3     
  12 C12            1.0841     2.1047     1.0493 C.3     
  13 C13           -1.6808    -0.2699     1.1582 C.3     
  14 C14           -3.9228    -0.2546     0.2041 C.2     
  15 C15           -4.8830     0.1424    -0.8478 C.ar    
  16 C16           -6.2189    -0.2475    -0.7588 C.ar    
  17 C17           -4.4563     0.9137    -1.9307 C.ar    
  18 C18           -7.1136     0.1287    -1.7496 C.ar    
  19 C19           -5.3543     1.2834    -2.9111 C.ar    
  20 C20           -6.6774     0.8918    -2.8264 C.ar    
  21 C21          -11.0675    -1.1402     0.9313 C.ar    
  22 C22          -12.3210    -1.7709     1.0357 C.ar    
  23 C23           -9.0144    -0.4889    -0.4615 C.2     
  24 C24          -10.4054    -1.0208    -0.3758 C.2     
  25 C25          -10.4579    -0.6219     2.0804 C.ar    
  26 C26          -12.9349    -1.8762     2.2760 C.ar    
  27 C27          -11.0869    -0.7325     3.3000 C.ar    
  28 C28          -12.3174    -1.3642     3.3997 C.ar    
  29 C29          -14.2830    -2.2298    -0.2157 C.2     
  30 C30          -14.9479    -2.6969    -1.4848 C.3     
  31 H31            0.0153    -0.0483    -0.1711 H       
  32 H32            0.2378    -0.3816     2.8262 H       
  33 H33            1.2988    -1.0220     1.5320 H       
  34 H34            1.6252     1.4495     3.0574 H       
  35 H35            2.6861     0.8091     1.7631 H       
  36 H36            1.6063     2.0516     0.0940 H       
  37 H37            1.1569     3.1088     1.4672 H       
  38 H38           -2.0074     0.1304     2.1180 H       
  39 H39           -1.6333    -1.3573     1.2152 H       
  40 H40           -2.3332     0.6560    -0.6377 H       
  41 H41           -6.5555    -0.8406     0.0786 H       
  42 H42           -3.4234     1.2213    -2.0008 H       
  43 H43           -5.0222     1.8803    -3.7476 H       
  44 H44           -7.3755     1.1839    -3.5970 H       
  45 H45           -8.9798    -0.3644    -2.4735 H       
  46 H46           -9.4958    -0.1364     2.0100 H       
  47 H47          -13.8971    -2.3589     2.3622 H       
  48 H48          -10.6153    -0.3326     4.1855 H       
  49 H49          -12.4088    -2.6846    -0.8034 H       
  50 H50          -12.8001    -1.4488     4.3622 H       
  51 H51          -15.0348    -1.8606    -2.1785 H       
  52 H52          -14.3489    -3.4857    -1.9398 H       
  53 H53          -15.9411    -3.0821    -1.2541 H       
@<TRIPOS>BOND
   1    1    9 1
   2    1   12 1
   3    2   14 2
   4    3   23 2
   5    4   24 2
   6    5   29 2
   7    6   13 1
   8    6   14 am
   9    6   40 1
  10    7   18 1
  11    7   23 am
  12    7   45 1
  13    8   22 1
  14    8   29 am
  15    8   49 1
  16    9   10 1
  17    9   13 1
  18    9   31 1
  19   10   11 1
  20   10   32 1
  21   10   33 1
  22   11   12 1
  23   11   34 1
  24   11   35 1
  25   12   36 1
  26   12   37 1
  27   13   38 1
  28   13   39 1
  29   14   15 1
  30   15   16 ar
  31   15   17 ar
  32   16   18 ar
  33   16   41 1
  34   17   19 ar
  35   17   42 1
  36   18   20 ar
  37   19   20 ar
  38   19   43 1
  39   20   44 1
  40   21   22 ar
  41   21   24 1
  42   21   25 ar
  43   22   26 ar
  44   23   24 1
  45   25   27 ar
  46   25   46 1
  47   26   28 ar
  48   26   47 1
  49   27   28 ar
  50   27   48 1
  51   28   50 1
  52   29   30 1
  53   30   51 1
  54   30   52 1
  55   30   53 1

#	End of record

#	Name: 16193332
#	Creating user name:	landrgr1
#	Creation time:	28. 01. 2015 13:52

#	Modifying user name:	landrgr1
#	Modification time:	28. 01. 2015 13:52

#	Program:	corina 3.48 0006  22.01.2010

@<TRIPOS>MOLECULE
16193332
  59   61    0    0    0
SMALL
NO_CHARGES


@<TRIPOS>ATOM
   1 O1            -0.0173     1.4248     0.0099 O.3     
   2 O2            -3.7588    -1.8096     0.0282 O.2     
   3 O3             4.6085     1.3565    -0.0326 O.2     
   4 N4            -5.7864    -6.4588     0.0226 N.3     
   5 N5            -3.0546    -3.9134     0.0102 N.am    
   6 N6             3.6598     3.3532    -0.0136 N.am    
   7 C7            -4.4083    -5.9503     0.0122 C.3     
   8 C8            -4.4290    -4.4205     0.0206 C.3     
   9 C9            -5.8152    -7.9068    -0.2230 C.3     
  10 C10           -1.4333    -0.5336     0.0129 C.3     
  11 C11           -1.4126    -2.0635     0.0045 C.3     
  12 C12            0.0021    -0.0041     0.0020 C.3     
  13 C13            1.2577     3.5225     0.0090 C.ar    
  14 C14            2.5231     4.1358     0.0007 C.ar    
  15 C15            1.1798     2.0554     0.0018 C.2     
  16 C16           -7.2378    -8.3498    -0.4492 C.ar    
  17 C17           -2.8264    -2.5851     0.0152 C.2     
  18 C18           -6.4611    -6.1253     1.2842 C.3     
  19 C19            2.3456     1.3437    -0.0118 C.2     
  20 C20            3.5799     2.0117    -0.0196 C.2     
  21 C21            0.1027     4.3076     0.0243 C.ar    
  22 C22            2.6111     5.5234     0.0074 C.ar    
  23 C23           -7.7648    -8.3563    -1.7271 C.ar    
  24 C24           -8.0138    -8.7551     0.6206 C.ar    
  25 C25            4.9761     3.9960    -0.0284 C.3     
  26 C26            0.2129     5.6800     0.0303 C.ar    
  27 C27            1.4619     6.2844     0.0220 C.ar    
  28 C28           -9.0697    -8.7626    -1.9345 C.ar    
  29 C29           -9.3187    -9.1614     0.4131 C.ar    
  30 C30           -9.8474    -9.1628    -0.8641 C.ar    
  31 H31           -3.8811    -6.3114     0.8953 H       
  32 H32           -3.8981    -6.3018    -0.8846 H       
  33 H33           -4.9392    -4.0689     0.9174 H       
  34 H34           -4.9562    -4.0594    -0.8625 H       
  35 H35           -5.2182    -8.1376    -1.1053 H       
  36 H36           -5.4046    -8.4301     0.6405 H       
  37 H37           -1.9605    -0.1726    -0.8702 H       
  38 H38           -1.9435    -0.1821     0.9097 H       
  39 H39           -0.9024    -2.4150    -0.8923 H       
  40 H40           -0.8854    -2.4246     0.8875 H       
  41 H41            0.5123    -0.3556    -0.8948 H       
  42 H42            0.5293    -0.3651     0.8851 H       
  43 H43           -2.3089    -4.5336    -0.0002 H       
  44 H44           -6.4871    -5.0426     1.4072 H       
  45 H45           -7.4795    -6.5134     1.2653 H       
  46 H46           -5.9172    -6.5726     2.1163 H       
  47 H47            2.3175     0.2641    -0.0162 H       
  48 H48           -0.8712     3.8408     0.0310 H       
  49 H49            3.5782     6.0041     0.0014 H       
  50 H50           -7.1572    -8.0435    -2.5634 H       
  51 H51           -7.6005    -8.7545     1.6184 H       
  52 H52            5.3147     4.1543     0.9955 H       
  53 H53            5.6870     3.3563    -0.5513 H       
  54 H54            4.9061     4.9557    -0.5404 H       
  55 H55           -0.6783     6.2899     0.0417 H       
  56 H56            1.5344     7.3620     0.0276 H       
  57 H57           -9.4817    -8.7669    -2.9329 H       
  58 H58           -9.9249    -9.4784     1.2489 H       
  59 H59          -10.8670    -9.4800    -1.0261 H       
@<TRIPOS>BOND
   1    1   12 1
   2    1   15 1
   3    2   17 2
   4    3   20 2
   5    4    7 1
   6    4    9 1
   7    4   18 1
   8    5    8 1
   9    5   17 am
  10    5   43 1
  11    6   14 1
  12    6   20 am
  13    6   25 1
  14    7    8 1
  15    7   31 1
  16    7   32 1
  17    8   33 1
  18    8   34 1
  19    9   16 1
  20    9   35 1
  21    9   36 1
  22   10   11 1
  23   10   12 1
  24   10   37 1
  25   10   38 1
  26   11   17 1
  27   11   39 1
  28   11   40 1
  29   12   41 1
  30   12   42 1
  31   13   14 ar
  32   13   15 1
  33   13   21 ar
  34   14   22 ar
  35   15   19 2
  36   16   23 ar
  37   16   24 ar
  38   18   44 1
  39   18   45 1
  40   18   46 1
  41   19   20 1
  42   19   47 1
  43   21   26 ar
  44   21   48 1
  45   22   27 ar
  46   22   49 1
  47   23   28 ar
  48   23   50 1
  49   24   29 ar
  50   24   51 1
  51   25   52 1
  52   25   53 1
  53   25   54 1
  54   26   27 ar
  55   26   55 1
  56   27   56 1
  57   28   30 ar
  58   28   57 1
  59   29   30 ar
  60   29   58 1
  61   30   59 1

#	End of record

#	Name: 16193325
#	Creating user name:	landrgr1
#	Creation time:	28. 01. 2015 13:52

#	Modifying user name:	landrgr1
#	Modification time:	28. 01. 2015 13:52

#	Program:	corina 3.48 0006  22.01.2010

@<TRIPOS>MOLECULE
16193325
  55   57    0    0    0
SMALL
NO_CHARGES


@<TRIPOS>ATOM
   1 O1            -0.0176     1.4485     0.0100 O.3     
   2 O2             1.6030     3.0415     0.0031 O.2     
   3 O3             3.1849    -1.9789    -0.0386 O.2     
   4 N4             1.1367    -2.8367    -0.0231 N.am    
   5 C5             0.0021    -0.0041     0.0020 C.3     
   6 C6            -0.6792    -0.5449     1.2582 C.3     
   7 C7            -0.7032    -0.5314    -1.2467 C.3     
   8 C8            -2.8502    -0.6465     0.0258 C.3     
   9 C9            -2.1455    -0.1066     1.2718 C.3     
  10 C10           -2.1694    -0.0931    -1.2275 C.3     
  11 C11            1.4550    -0.4105    -0.0140 C.2     
  12 C12           -2.7702    -2.1744     0.0168 C.3     
  13 C13            2.1738     0.7246    -0.0148 C.2     
  14 C14            1.2583     1.8769     0.0001 C.2     
  15 C15            1.9846    -1.7891    -0.0261 C.2     
  16 C16            3.6786     0.8051    -0.0287 C.3     
  17 C17            1.6619    -4.2042    -0.0351 C.3     
  18 C18            0.6303    -5.1522     0.5798 C.3     
  19 C19            1.9483    -4.6280    -1.4771 C.3     
  20 C20            0.4394    -4.8112     2.0352 C.ar    
  21 C21            3.0691    -3.7589    -2.0510 C.3     
  22 C22           -0.5235    -3.8926     2.4093 C.ar    
  23 C23            1.2233    -5.4211     2.9966 C.ar    
  24 C24           -0.6986    -3.5797     3.7443 C.ar    
  25 C25            1.0481    -5.1083     4.3317 C.ar    
  26 C26            0.0888    -4.1858     4.7053 C.ar    
  27 H27           -0.6254    -1.6336     1.2607 H       
  28 H28           -0.1749    -0.1541     2.1420 H       
  29 H29           -0.2158    -0.1311    -2.1357 H       
  30 H30           -0.6495    -1.6200    -1.2619 H       
  31 H31           -3.8956    -0.3380     0.0374 H       
  32 H32           -2.6337    -0.4986     2.1640 H       
  33 H33           -2.1993     0.9821     1.2766 H       
  34 H34           -2.2231     0.9955    -1.2196 H       
  35 H35           -2.6746    -0.4755    -2.1144 H       
  36 H36           -3.2563    -2.5690     0.9090 H       
  37 H37           -3.2722    -2.5593    -0.8708 H       
  38 H38           -1.7250    -2.4834     0.0058 H       
  39 H39            4.0316     0.8301    -1.0597 H       
  40 H40            3.9988     1.7105     0.4869 H       
  41 H41            4.0938    -0.0669     0.4765 H       
  42 H42            0.1786    -2.6852    -0.0131 H       
  43 H43            2.5837    -4.2445     0.5453 H       
  44 H44           -0.3188    -5.0466     0.0543 H       
  45 H45            0.9826    -6.1798     0.4906 H       
  46 H46            2.2545    -5.6740    -1.4944 H       
  47 H47            1.0476    -4.5031    -2.0781 H       
  48 H48            2.7628    -2.7130    -2.0337 H       
  49 H49            3.9697    -3.8838    -1.4500 H       
  50 H50            3.2731    -4.0608    -3.0783 H       
  51 H51           -1.1387    -3.4190     1.6585 H       
  52 H52            1.9723    -6.1424     2.7048 H       
  53 H53           -1.4504    -2.8615     4.0365 H       
  54 H54            1.6603    -5.5851     5.0829 H       
  55 H55           -0.0478    -3.9411     5.7483 H       
@<TRIPOS>BOND
   1    1    5 1
   2    1   14 1
   3    2   14 2
   4    3   15 2
   5    4   15 am
   6    4   17 1
   7    4   42 1
   8    5    6 1
   9    5    7 1
  10    5   11 1
  11    6    9 1
  12    6   27 1
  13    6   28 1
  14    7   10 1
  15    7   29 1
  16    7   30 1
  17    8    9 1
  18    8   10 1
  19    8   12 1
  20    8   31 1
  21    9   32 1
  22    9   33 1
  23   10   34 1
  24   10   35 1
  25   11   13 2
  26   11   15 1
  27   12   36 1
  28   12   37 1
  29   12   38 1
  30   13   14 1
  31   13   16 1
  32   16   39 1
  33   16   40 1
  34   16   41 1
  35   17   18 1
  36   17   19 1
  37   17   43 1
  38   18   20 1
  39   18   44 1
  40   18   45 1
  41   19   21 1
  42   19   46 1
  43   19   47 1
  44   20   22 ar
  45   20   23 ar
  46   21   48 1
  47   21   49 1
  48   21   50 1
  49   22   24 ar
  50   22   51 1
  51   23   25 ar
  52   23   52 1
  53   24   26 ar
  54   24   53 1
  55   25   26 ar
  56   25   54 1
  57   26   55 1

#	End of record

#	Name: 16193323
#	Creating user name:	landrgr1
#	Creation time:	28. 01. 2015 13:52

#	Modifying user name:	landrgr1
#	Modification time:	28. 01. 2015 13:52

#	Program:	corina 3.48 0006  22.01.2010

@<TRIPOS>MOLECULE
16193323
  35   34    0    0    0
SMALL
NO_CHARGES


@<TRIPOS>ATOM
   1 Cl1            0.0000     0.0000     0.0000 Cl      
   2 H2             0.0000     1.3700     0.0000 H       
   3 O3             6.0271    10.1994     8.4030 O.3     
   4 N4             6.0340     8.6355    10.8403 N.3     
   5 C5             6.7626     8.2771     7.1363 C.3     
   6 C6             6.0464     8.7705     8.3951 C.3     
   7 C7             6.7864     8.2637     9.6347 C.3     
   8 C8             6.5834     7.9658    12.0335 C.3     
   9 C9             6.0743    10.0970    11.0603 C.3     
  10 C10            6.9572     9.0691    13.0456 C.3     
  11 C11            6.0754    10.2653    12.6002 C.3     
  12 C12            8.1980     8.8067     7.1255 C.3     
  13 C13            6.7833     6.7473     7.1279 C.3     
  14 C14            6.0226     8.7840     5.8968 C.3     
  15 H15            5.0239     8.3933     8.4029 H       
  16 H16            7.7794     8.7116     9.6735 H       
  17 H17            6.8790     7.1788     9.5843 H       
  18 H18            5.8326     7.3046    12.4662 H       
  19 H19            7.4715     7.3949    11.7624 H       
  20 H20            6.9827    10.5203    10.6316 H       
  21 H21            5.1930    10.5703    10.6274 H       
  22 H22            6.7059     8.7621    14.0608 H       
  23 H23            8.0150     9.3204    12.9685 H       
  24 H24            6.5289    11.2135    12.8890 H       
  25 H25            5.0664    10.1780    13.0032 H       
  26 H26            8.7252     8.4456     8.0085 H       
  27 H27            8.7082     8.4552     6.2287 H       
  28 H28            8.1832     9.8966     7.1315 H       
  29 H29            5.7607     6.3700     7.1356 H       
  30 H30            7.2935     6.3958     6.2311 H       
  31 H31            7.3105     6.3862     8.0110 H       
  32 H32            6.0078     9.8738     5.9028 H       
  33 H33            6.5328     8.4324     5.0000 H       
  34 H34            5.0000     8.4067     5.9045 H       
  35 H35            6.9050    10.6047     8.3968 H       
@<TRIPOS>BOND
   1    1    2 1
   2    3    6 1
   3    3   35 1
   4    4    7 1
   5    4    8 1
   6    4    9 1
   7    5    6 1
   8    5   12 1
   9    5   13 1
  10    5   14 1
  11    6    7 1
  12    6   15 1
  13    7   16 1
  14    7   17 1
  15    8   10 1
  16    8   18 1
  17    8   19 1
  18    9   11 1
  19    9   20 1
  20    9   21 1
  21   10   11 1
  22   10   22 1
  23   10   23 1
  24   11   24 1
  25   11   25 1
  26   12   26 1
  27   12   27 1
  28   12   28 1
  29   13   29 1
  30   13   30 1
  31   13   31 1
  32   14   32 1
  33   14   33 1
  34   14   34 1

#	End of record

#	Name: 16193314
#	Creating user name:	landrgr1
#	Creation time:	28. 01. 2015 13:52

#	Modifying user name:	landrgr1
#	Modification time:	28. 01. 2015 13:52

#	Program:	corina 3.48 0006  22.01.2010

@<TRIPOS>MOLECULE
16193314
  54   54    0    0    0
SMALL
NO_CHARGES


@<TRIPOS>ATOM
   1 Br1           -7.7472    -7.3026     0.9277 Br      
   2 S2            -0.1160     1.9287    -0.0635 S.3     
   3 O3            -1.5855    -4.5422    -0.0356 O.2     
   4 O4             5.2866     5.3815    -0.5270 O.3     
   5 N5            -1.3743    -1.9252    -0.0257 N.4     
   6 N6             2.4848     1.3448    -0.3375 N.ar    
   7 N7             0.2904     5.5608    -0.0232 N.1     
   8 C8            -1.4424    -0.4584     0.0148 C.3     
   9 C9            -2.7283    -2.4818     0.0973 C.3     
  10 C10           -0.7829    -2.3531    -1.3005 C.3     
  11 C11           -0.5438    -2.4077     1.0858 C.3     
  12 C12           -0.0322     0.1213    -0.1133 C.3     
  13 C13           -2.6532    -3.9868     0.1128 C.2     
  14 C14           -3.8752    -4.7822     0.3081 C.ar    
  15 C15            1.5945     2.3189    -0.2260 C.ar    
  16 C16           -3.8094    -6.1795     0.3231 C.ar    
  17 C17           -5.1078    -4.1449     0.4854 C.ar    
  18 C18            2.0076     3.6634    -0.2370 C.ar    
  19 C19            3.3714     3.9479    -0.3672 C.ar    
  20 C20           -4.9585    -6.9181     0.5070 C.ar    
  21 C21           -6.2484    -4.8967     0.6683 C.ar    
  22 C22            3.7742     1.5931    -0.4606 C.ar    
  23 C23            4.2562     2.8894    -0.4796 C.ar    
  24 C24           -6.1763    -6.2801     0.6767 C.ar    
  25 C25            3.8647     5.3718    -0.3850 C.3     
  26 C26            4.7403     0.4431    -0.5838 C.3     
  27 C27            1.0500     4.7215    -0.1178 C.1     
  28 C28            5.8589     6.6906    -0.5553 C.3     
  29 H29           -2.0586    -0.1003    -0.8100 H       
  30 H30           -1.8812    -0.1409     0.9607 H       
  31 H31           -3.1825    -2.1310     1.0240 H       
  32 H32           -3.3329    -2.1569    -0.7494 H       
  33 H33            0.2501    -2.0097    -1.3552 H       
  34 H34           -0.8082    -3.4408    -1.3658 H       
  35 H35           -1.3519    -1.9261    -2.1264 H       
  36 H36           -1.0470    -2.2032     2.0308 H       
  37 H37           -0.3869    -3.4814     0.9826 H       
  38 H38            0.4188    -1.8966     1.0687 H       
  39 H39            0.4066    -0.1962    -1.0592 H       
  40 H40            0.5841    -0.2367     0.7114 H       
  41 H41           -2.8607    -6.6782     0.1905 H       
  42 H42           -5.1654    -3.0665     0.4794 H       
  43 H43           -4.9093    -7.9969     0.5185 H       
  44 H44           -7.2007    -4.4061     0.8057 H       
  45 H45            5.3154     3.0744    -0.5819 H       
  46 H46            3.5894     5.8634     0.5481 H       
  47 H47            3.4122     5.9026    -1.2226 H       
  48 H48            4.8711     0.1895    -1.6358 H       
  49 H49            5.7016     0.7288    -0.1567 H       
  50 H50            4.3470    -0.4208    -0.0480 H       
  51 H51            6.9405     6.6119    -0.6652 H       
  52 H52            5.4478     7.2488    -1.3964 H       
  53 H53            5.6250     7.2095     0.3743 H       
  54 Br54          11.9405    12.2488     7.0308 Br      
@<TRIPOS>BOND
   1    1   24 1
   2    2   12 1
   3    2   15 1
   4    3   13 2
   5    4   25 1
   6    4   28 1
   7    5    8 1
   8    5    9 1
   9    5   10 1
  10    5   11 1
  11    6   15 ar
  12    6   22 ar
  13    7   27 3
  14    8   12 1
  15    8   29 1
  16    8   30 1
  17    9   13 1
  18    9   31 1
  19    9   32 1
  20   10   33 1
  21   10   34 1
  22   10   35 1
  23   11   36 1
  24   11   37 1
  25   11   38 1
  26   12   39 1
  27   12   40 1
  28   13   14 1
  29   14   16 ar
  30   14   17 ar
  31   15   18 ar
  32   16   20 ar
  33   16   41 1
  34   17   21 ar
  35   17   42 1
  36   18   19 ar
  37   18   27 1
  38   19   23 ar
  39   19   25 1
  40   20   24 ar
  41   20   43 1
  42   21   24 ar
  43   21   44 1
  44   22   23 ar
  45   22   26 1
  46   23   45 1
  47   25   46 1
  48   25   47 1
  49   26   48 1
  50   26   49 1
  51   26   50 1
  52   28   51 1
  53   28   52 1
  54   28   53 1

#	End of record

#	Name: 16193267
#	Creating user name:	landrgr1
#	Creation time:	28. 01. 2015 13:52

#	Modifying user name:	landrgr1
#	Modification time:	28. 01. 2015 13:52

#	Program:	corina 3.48 0006  22.01.2010

@<TRIPOS>MOLECULE
16193267
  55   55    0    0    0
SMALL
NO_CHARGES


@<TRIPOS>ATOM
   1 O1            -0.0786     0.8466     1.3498 O.3     
   2 O2             2.0166    -2.5974    -0.4399 O.3     
   3 N3             4.5513     0.4124    -1.6042 N.3     
   4 C4             2.4920    -0.3738     1.4821 C.3     
   5 C5             1.2021    -1.1768     1.6758 C.3     
   6 C6             2.8856    -0.3864     0.0036 C.3     
   7 C7             2.2551     1.0696     1.9370 C.3     
   8 C8             0.0684    -0.5016     0.8994 C.3     
   9 C9             3.5964    -0.9882     2.3030 C.ar    
  10 C10            1.0808     1.6580     1.1506 C.3     
  11 C11           -1.2368    -1.2639     1.1363 C.3     
  12 C12            4.1132     0.5028    -0.2049 C.3     
  13 C13            3.2143    -1.8180    -0.4245 C.3     
  14 C14            3.4292    -1.1659     3.6637 C.ar    
  15 C15            4.7744    -1.3792     1.6945 C.ar    
  16 C16           -2.3699    -0.5881     0.3615 C.3     
  17 C17           -1.0792    -2.7073     0.6540 C.3     
  18 C18            4.4423    -1.7294     4.4167 C.ar    
  19 C19            5.7874    -1.9427     2.4475 C.ar    
  20 C20            5.6223    -2.1156     3.8090 C.ar    
  21 H21            1.3450    -2.1911     1.3032 H       
  22 H22            0.9489    -1.2094     2.7354 H       
  23 H23            2.0574    -0.0089    -0.5961 H       
  24 H24            2.0232     1.0824     3.0020 H       
  25 H25            3.1511     1.6618     1.7512 H       
  26 H26            0.3039    -0.5057    -0.1648 H       
  27 H27            1.3295     1.6822     0.0896 H       
  28 H28            0.8801     2.6707     1.5002 H       
  29 H29           -1.4718    -1.2601     2.2007 H       
  30 H30            4.9183     0.1701     0.4501 H       
  31 H31            3.8574     1.5361     0.0297 H       
  32 H32            3.9226    -2.2543     0.2798 H       
  33 H33            3.6536    -1.8072    -1.4220 H       
  34 H34            2.5073    -0.8642     4.1384 H       
  35 H35            4.9032    -1.2447     0.6307 H       
  36 H36           -2.1350    -0.5919    -0.7029 H       
  37 H37           -3.2998    -1.1312     0.5302 H       
  38 H38           -2.4822     0.4402     0.7051 H       
  39 H39           -0.8443    -2.7111    -0.4104 H       
  40 H40           -0.2720    -3.1888     1.2060 H       
  41 H41           -2.0091    -3.2504     0.8227 H       
  42 H42            5.3614     0.9913    -1.7675 H       
  43 H43            4.7326    -0.5453    -1.8651 H       
  44 H44            2.1500    -3.5183    -0.7030 H       
  45 H45            4.3119    -1.8677     5.4799 H       
  46 H46            6.7076    -2.2485     1.9720 H       
  47 H47            6.4139    -2.5556     4.3974 H       
  48 O48           14.0313    11.5766    10.5005 O.3     
  49 O49           12.7840     8.1214    10.4939 O.3     
  50 O50           15.1076     9.6394    10.4799 O.2     
  51 O51           11.7076    10.0586    10.5146 O.2     
  52 C52           14.0495    10.2313    10.4932 C.2     
  53 C53           12.7658     9.4667    10.5013 C.2     
  54 H54           14.8868    12.0273    10.4948 H       
  55 H55           11.9285     7.6707    10.4997 H       
@<TRIPOS>BOND
   1    1    8 1
   2    1   10 1
   3    2   13 1
   4    2   44 1
   5    3   12 1
   6    3   42 1
   7    3   43 1
   8    4    5 1
   9    4    6 1
  10    4    7 1
  11    4    9 1
  12    5    8 1
  13    5   21 1
  14    5   22 1
  15    6   12 1
  16    6   13 1
  17    6   23 1
  18    7   10 1
  19    7   24 1
  20    7   25 1
  21    8   11 1
  22    8   26 1
  23    9   14 ar
  24    9   15 ar
  25   10   27 1
  26   10   28 1
  27   11   16 1
  28   11   17 1
  29   11   29 1
  30   12   30 1
  31   12   31 1
  32   13   32 1
  33   13   33 1
  34   14   18 ar
  35   14   34 1
  36   15   19 ar
  37   15   35 1
  38   16   36 1
  39   16   37 1
  40   16   38 1
  41   17   39 1
  42   17   40 1
  43   17   41 1
  44   18   20 ar
  45   18   45 1
  46   19   20 ar
  47   19   46 1
  48   20   47 1
  49   48   52 1
  50   48   54 1
  51   49   53 1
  52   49   55 1
  53   50   52 2
  54   51   53 2
  55   52   53 1

#	End of record

#	Name: 16193231
#	Creating user name:	landrgr1
#	Creation time:	28. 01. 2015 13:52

#	Modifying user name:	landrgr1
#	Modification time:	28. 01. 2015 13:52

#	Program:	corina 3.48 0006  22.01.2010

@<TRIPOS>MOLECULE
16193231
  52   54    0    0    0
SMALL
NO_CHARGES


@<TRIPOS>ATOM
   1 F1             5.7977    -1.9057    -4.6693 F       
   2 O2            -2.2352     1.5380     0.0211 O.2     
   3 O3            -7.9226     6.4464    -1.8078 O.2     
   4 O4            -7.2229     8.4366    -1.8043 O.2     
   5 N5            -0.0179     1.4666     0.0101 N.am    
   6 N6             2.2251     0.1660    -1.0110 N.3     
   7 N7            -4.0002     6.1828     0.0548 N.pl3   
   8 N8            -4.7714     6.4523     1.1927 N.2     
   9 N9            -7.1041     7.2761    -1.4541 N.pl3   
  10 C10            0.0021    -0.0041     0.0020 C.3     
  11 C11            1.2683     2.1800     0.0017 C.3     
  12 C12            0.9085    -0.4723    -1.1414 C.3     
  13 C13            2.1249     1.6258    -1.1417 C.3     
  14 C14           -1.1838     2.1425     0.0194 C.2     
  15 C15           -1.1811     3.6495     0.0275 C.3     
  16 C16           -2.6226     4.1621     0.0372 C.3     
  17 C17            3.1305    -0.3590    -1.9381 C.ar    
  18 C18           -2.6199     5.6921     0.0455 C.3     
  19 C19            4.4361     0.1127    -1.9790 C.ar    
  20 C20            2.7272    -1.3570    -2.8156 C.ar    
  21 C21           -4.7552     6.4497    -1.0314 C.2     
  22 C22           -5.9650     6.8742    -0.5986 C.2     
  23 C23           -5.9468     6.8719     0.8000 C.2     
  24 C24            5.3288    -0.4074    -2.8957 C.ar    
  25 C25            3.6233    -1.8742    -3.7307 C.ar    
  26 C26           -4.3276     6.3018    -2.4689 C.3     
  27 C27            4.9229    -1.3984    -3.7735 C.ar    
  28 C28           -7.0876     7.2734     1.6992 C.3     
  29 H29            0.3920    -0.3702     0.9518 H       
  30 H30           -1.0081    -0.3831    -0.1529 H       
  31 H31            1.0953     3.2449    -0.1535 H       
  32 H32            1.7799     2.0238     0.9514 H       
  33 H33            0.4625    -0.1944    -2.0963 H       
  34 H34            1.0231    -1.5553    -1.0945 H       
  35 H35            3.1216     2.0644    -1.0951 H       
  36 H36            1.6619     1.8745    -2.0966 H       
  37 H37           -0.6624     4.0071     0.9170 H       
  38 H38           -0.6709     4.0167    -0.8629 H       
  39 H39           -3.1414     3.8045    -0.8523 H       
  40 H40           -3.1329     3.7948     0.9277 H       
  41 H41           -2.1096     6.0593    -0.8449 H       
  42 H42           -2.1011     6.0496     0.9350 H       
  43 H43            4.7531     0.8858    -1.2948 H       
  44 H44            1.7137    -1.7287    -2.7824 H       
  45 H45            6.3441    -0.0407    -2.9281 H       
  46 H46            3.3100    -2.6503    -4.4133 H       
  47 H47           -4.5649     5.2965    -2.8170 H       
  48 H48           -4.8551     7.0326    -3.0819 H       
  49 H49           -3.2534     6.4694    -2.5474 H       
  50 H50           -7.0186     8.3385     1.9200 H       
  51 H51           -8.0340     7.0664     1.1997 H       
  52 H52           -7.0351     6.7056     2.6281 H       
@<TRIPOS>BOND
   1    1   27 1
   2    2   14 2
   3    3    9 2
   4    4    9 2
   5    5   10 1
   6    5   11 1
   7    5   14 am
   8    6   12 1
   9    6   13 1
  10    6   17 1
  11    7    8 1
  12    7   18 1
  13    7   21 1
  14    8   23 2
  15    9   22 1
  16   10   12 1
  17   10   29 1
  18   10   30 1
  19   11   13 1
  20   11   31 1
  21   11   32 1
  22   12   33 1
  23   12   34 1
  24   13   35 1
  25   13   36 1
  26   14   15 1
  27   15   16 1
  28   15   37 1
  29   15   38 1
  30   16   18 1
  31   16   39 1
  32   16   40 1
  33   17   19 ar
  34   17   20 ar
  35   18   41 1
  36   18   42 1
  37   19   24 ar
  38   19   43 1
  39   20   25 ar
  40   20   44 1
  41   21   22 2
  42   21   26 1
  43   22   23 1
  44   23   28 1
  45   24   27 ar
  46   24   45 1
  47   25   27 ar
  48   25   46 1
  49   26   47 1
  50   26   48 1
  51   26   49 1
  52   28   50 1
  53   28   51 1
  54   28   52 1

#	End of record

#	Name: 16193189
#	Creating user name:	landrgr1
#	Creation time:	28. 01. 2015 13:52

#	Modifying user name:	landrgr1
#	Modification time:	28. 01. 2015 13:52

#	Program:	corina 3.48 0006  22.01.2010

@<TRIPOS>MOLECULE
16193189
  43   44    0    0    0
SMALL
NO_CHARGES


@<TRIPOS>ATOM
   1 Cl1           -1.2044    -4.9106    -0.0140 Cl      
   2 Cl2           -6.6017    -4.6940     0.0414 Cl      
   3 S3            -0.0225     1.8057     0.0120 S.3     
   4 O4            -1.4139    -1.9625     0.0050 O.3     
   5 N5             3.9067     4.9427    -0.0078 N.pl3   
   6 N6             4.7843     0.3324    -0.0405 N.pl3   
   7 N7             4.3203     2.6326    -0.0242 N.ar    
   8 N8             2.1465     3.3913    -0.0002 N.ar    
   9 N9             2.5771     1.1284    -0.0160 N.ar    
  10 C10            0.0021    -0.0041     0.0020 C.3     
  11 C11           -1.4333    -0.5336     0.0129 C.3     
  12 C12            3.4520     3.6395    -0.0109 C.ar    
  13 C13            3.8828     1.3773    -0.0267 C.ar    
  14 C14            4.3023    -1.0511    -0.0433 C.3     
  15 C15            1.7084     2.1353    -0.0028 C.ar    
  16 C16           -2.6167    -2.5961     0.0131 C.ar    
  17 C17            5.3458     5.2164    -0.0191 C.3     
  18 C18            2.9501     6.0522     0.0068 C.3     
  19 C19            5.4965    -2.0073    -0.0593 C.3     
  20 C20           -2.6716    -3.9830     0.0062 C.ar    
  21 C21           -3.7905    -1.8576     0.0341 C.ar    
  22 C22           -3.8961    -4.6251     0.0149 C.ar    
  23 C23           -5.0119    -2.5031     0.0427 C.ar    
  24 C24           -5.0653    -3.8858     0.0305 C.ar    
  25 H25            0.5123    -0.3556    -0.8948 H       
  26 H26            0.5293    -0.3651     0.8851 H       
  27 H27           -1.9605    -0.1726    -0.8702 H       
  28 H28           -1.9435    -0.1821     0.9097 H       
  29 H29            3.7057    -1.2298     0.8513 H       
  30 H30            3.6893    -1.2204    -0.9286 H       
  31 H31            5.7372     0.5140    -0.0483 H       
  32 H32            5.6936     5.2900    -1.0495 H       
  33 H33            5.5411     6.1558     0.4982 H       
  34 H34            5.8736     4.4072     0.4856 H       
  35 H35            2.3316     5.9869     0.9020 H       
  36 H36            3.4911     6.9984     0.0072 H       
  37 H37            2.3158     5.9967    -0.8779 H       
  38 H38            5.1379    -3.0366    -0.0614 H       
  39 H39            6.0931    -1.8286    -0.9539 H       
  40 H40            6.1095    -1.8379     0.8260 H       
  41 H41           -3.7497    -0.7784     0.0440 H       
  42 H42           -3.9397    -5.7042     0.0092 H       
  43 H43           -5.9259    -1.9280     0.0594 H       
@<TRIPOS>BOND
   1    1   20 1
   2    2   24 1
   3    3   10 1
   4    3   15 1
   5    4   11 1
   6    4   16 1
   7    5   12 1
   8    5   17 1
   9    5   18 1
  10    6   13 1
  11    6   14 1
  12    6   31 1
  13    7   12 ar
  14    7   13 ar
  15    8   12 ar
  16    8   15 ar
  17    9   13 ar
  18    9   15 ar
  19   10   11 1
  20   10   25 1
  21   10   26 1
  22   11   27 1
  23   11   28 1
  24   14   19 1
  25   14   29 1
  26   14   30 1
  27   16   20 ar
  28   16   21 ar
  29   17   32 1
  30   17   33 1
  31   17   34 1
  32   18   35 1
  33   18   36 1
  34   18   37 1
  35   19   38 1
  36   19   39 1
  37   19   40 1
  38   20   22 ar
  39   21   23 ar
  40   21   41 1
  41   22   24 ar
  42   22   42 1
  43   23   24 ar
  44   23   43 1

#	End of record

#	Name: 16193017
#	Creating user name:	landrgr1
#	Creation time:	28. 01. 2015 13:52

#	Modifying user name:	landrgr1
#	Modification time:	28. 01. 2015 13:52

#	Program:	corina 3.48 0006  22.01.2010

@<TRIPOS>MOLECULE
16193017
  55   57    0    0    0
SMALL
NO_CHARGES


@<TRIPOS>ATOM
   1 O1            -4.9561    -5.7474    -0.6978 O.2     
   2 O2             0.7794    -2.2689     0.3547 O.3     
   3 O3            -8.6305    -9.1963    -0.9905 O.2     
   4 O4           -10.5895    -8.6695    -0.4113 O.2     
   5 O5             0.1444    -1.2022    -1.4858 O.2     
   6 N6            -7.1518    -0.7299     1.4699 N.3     
   7 N7            -5.4756    -3.6990     0.0497 N.am    
   8 N8            -7.6705    -3.1796     0.6760 N.2     
   9 N9            -9.4191    -8.3705    -0.5666 N.pl3   
  10 C10           -6.0143    -1.4379     0.8675 C.3     
  11 C11           -6.4266    -2.8443     0.5169 C.2     
  12 C12           -7.5137    -1.3212     2.7651 C.3     
  13 C13           -6.8661     0.7044     1.6075 C.3     
  14 C14           -7.1973    -5.3831    -0.1095 C.ar    
  15 C15           -5.7958    -4.9724    -0.2785 C.2     
  16 C16           -4.1592    -3.2563    -0.0976 C.ar    
  17 C17           -8.1142    -4.4275     0.3819 C.ar    
  18 C18           -8.9090    -0.8431     3.1719 C.3     
  19 C19           -6.9783     1.3803     0.2394 C.3     
  20 C20           -7.6298    -6.6713    -0.4181 C.ar    
  21 C21           -9.4522    -4.7882     0.5535 C.ar    
  22 C22           -3.8165    -2.4448    -1.1742 C.ar    
  23 C23           -3.1954    -3.6228     0.8360 C.ar    
  24 C24           -8.9550    -7.0033    -0.2402 C.ar    
  25 C25           -9.8591    -6.0662     0.2427 C.ar    
  26 C26           -2.5198    -2.0065    -1.3227 C.ar    
  27 C27           -1.8966    -3.1883     0.6940 C.ar    
  28 C28           -1.5473    -2.3775    -0.3897 C.ar    
  29 C29           -0.1568    -1.9103    -0.5456 C.2     
  30 C30            2.1266    -1.7724     0.1382 C.3     
  31 C31            3.0426    -2.2802     1.2536 C.3     
  32 H32           -5.6986    -0.9159    -0.0358 H       
  33 H33           -5.1877    -1.4679     1.5774 H       
  34 H34           -7.5120    -2.4080     2.6815 H       
  35 H35           -6.7898    -1.0137     3.5198 H       
  36 H36           -7.5833     1.1535     2.2945 H       
  37 H37           -5.8569     0.8382     1.9971 H       
  38 H38           -9.1654    -1.2581     4.1466 H       
  39 H39           -8.9184     0.2455     3.2266 H       
  40 H40           -9.6371    -1.1761     2.4323 H       
  41 H41           -6.3193     0.8782    -0.4690 H       
  42 H42           -8.0075     1.3168    -0.1139 H       
  43 H43           -6.6880     2.4273     0.3265 H       
  44 H44           -6.9312    -7.4040    -0.7943 H       
  45 H45          -10.1644    -4.0682     0.9286 H       
  46 H46           -4.5683    -2.1589    -1.8949 H       
  47 H47           -3.4660    -4.2493     1.6730 H       
  48 H48          -10.8944    -6.3435     0.3761 H       
  49 H49           -2.2542    -1.3771    -2.1592 H       
  50 H50           -1.1488    -3.4732     1.4192 H       
  51 H51            2.4945    -2.1279    -0.8242 H       
  52 H52            2.1174    -0.6825     0.1436 H       
  53 H53            4.0539    -1.9075     1.0910 H       
  54 H54            2.6747    -1.9247     2.2160 H       
  55 H55            3.0518    -3.3702     1.2482 H       
@<TRIPOS>BOND
   1    1   15 2
   2    2   29 1
   3    2   30 1
   4    3    9 2
   5    4    9 2
   6    5   29 2
   7    6   10 1
   8    6   12 1
   9    6   13 1
  10    7   11 1
  11    7   15 am
  12    7   16 1
  13    8   11 2
  14    8   17 1
  15    9   24 1
  16   10   11 1
  17   10   32 1
  18   10   33 1
  19   12   18 1
  20   12   34 1
  21   12   35 1
  22   13   19 1
  23   13   36 1
  24   13   37 1
  25   14   15 1
  26   14   17 ar
  27   14   20 ar
  28   16   22 ar
  29   16   23 ar
  30   17   21 ar
  31   18   38 1
  32   18   39 1
  33   18   40 1
  34   19   41 1
  35   19   42 1
  36   19   43 1
  37   20   24 ar
  38   20   44 1
  39   21   25 ar
  40   21   45 1
  41   22   26 ar
  42   22   46 1
  43   23   27 ar
  44   23   47 1
  45   24   25 ar
  46   25   48 1
  47   26   28 ar
  48   26   49 1
  49   27   28 ar
  50   27   50 1
  51   28   29 1
  52   30   31 1
  53   30   51 1
  54   30   52 1
  55   31   53 1
  56   31   54 1
  57   31   55 1

#	End of record

#	Name: 16192914
#	Creating user name:	landrgr1
#	Creation time:	28. 01. 2015 13:52

#	Modifying user name:	landrgr1
#	Modification time:	28. 01. 2015 13:52

#	Program:	corina 3.48 0006  22.01.2010

@<TRIPOS>MOLECULE
16192914
  59   61    0    0    0
SMALL
NO_CHARGES


@<TRIPOS>ATOM
   1 Cl1            0.0000     0.0000     0.0000 Cl      
   2 H2             0.0000     1.3700     0.0000 H       
   3 O3             9.9144    18.6913    12.0163 O.3     
   4 N4             8.4622    11.2261     8.6105 N.3     
   5 N5             8.8132     8.6755     7.3954 N.3     
   6 N6            11.3267    13.0399     9.6834 N.pl3   
   7 N7            10.9543    12.6052     7.6305 N.2     
   8 N8            12.4401    13.0965     9.0340 N.2     
   9 N9            12.2117    12.8335     7.7947 N.2     
  10 C10            9.1787    10.1526     9.3133 C.3     
  11 C11            8.6336    11.1053     7.1560 C.3     
  12 C12            8.8972    12.5470     9.0839 C.3     
  13 C13            8.6418     8.7963     8.8499 C.3     
  14 C14            8.0967     9.7491     6.6926 C.3     
  15 C15            8.3782     7.3547     6.9219 C.3     
  16 C16           10.3655    12.7256     8.7952 C.2     
  17 C17            8.1115    13.6190     8.3736 C.ar    
  18 C18            8.3344     7.3501     5.3926 C.3     
  19 C19            6.7692    13.4281     8.1039 C.ar    
  20 C20            8.7317    14.7955     7.9968 C.ar    
  21 C21           11.1440    13.2685    11.1189 C.3     
  22 C22            6.0485    14.4115     7.4524 C.ar    
  23 C23            8.0110    15.7789     7.3453 C.ar    
  24 C24           10.8150    14.7194    11.3587 C.ar    
  25 C25            6.6700    15.5858     7.0709 C.ar    
  26 C26            9.4957    15.1201    11.4613 C.ar    
  27 C27           11.8332    15.6468    11.4813 C.ar    
  28 C28            9.1915    16.4495    11.6815 C.ar    
  29 C29           11.5342    16.9774    11.7015 C.ar    
  30 C30           10.2111    17.3829    11.7997 C.ar    
  31 C31           11.0147    19.5962    12.1276 C.3     
  32 H32           10.2433    10.2183     9.0887 H       
  33 H33            9.0263    10.2563    10.3875 H       
  34 H34            8.0838    11.9037     6.6575 H       
  35 H35            9.6920    11.1818     6.9069 H       
  36 H36            8.7263    12.6225    10.1578 H       
  37 H37            7.5834     8.7198     9.0990 H       
  38 H38            9.1917     7.9980     9.3484 H       
  39 H39            8.2492     9.6454     5.6183 H       
  40 H40            7.0321     9.6834     6.9172 H       
  41 H41            9.0799     6.5956     7.2676 H       
  42 H42            7.3849     7.1370     7.3145 H       
  43 H43            8.0117     6.3700     5.0413 H       
  44 H44            7.6327     8.1091     5.0469 H       
  45 H45            9.3277     7.5678     5.0000 H       
  46 H46            6.2837    12.5106     8.4020 H       
  47 H47            9.7793    14.9466     8.2118 H       
  48 H48           10.3279    12.6455    11.4850 H       
  49 H49           12.0622    13.0120    11.6474 H       
  50 H50            5.0000    14.2620     7.2410 H       
  51 H51            8.4955    16.6982     7.0512 H       
  52 H52            6.1070    16.3539     6.5615 H       
  53 H53            8.7023    14.3932    11.3690 H       
  54 H54           12.8630    15.3307    11.4051 H       
  55 H55            8.1607    16.7620    11.7613 H       
  56 H56           12.3298    17.7014    11.7976 H       
  57 H57           10.6395    20.6051    12.2990 H       
  58 H58           11.6479    19.2973    12.9629 H       
  59 H59           11.5960    19.5764    11.2057 H       
@<TRIPOS>BOND
   1    1    2 1
   2    3   30 1
   3    3   31 1
   4    4   10 1
   5    4   11 1
   6    4   12 1
   7    5   13 1
   8    5   14 1
   9    5   15 1
  10    6    8 1
  11    6   16 1
  12    6   21 1
  13    7    9 1
  14    7   16 2
  15    8    9 2
  16   10   13 1
  17   10   32 1
  18   10   33 1
  19   11   14 1
  20   11   34 1
  21   11   35 1
  22   12   16 1
  23   12   17 1
  24   12   36 1
  25   13   37 1
  26   13   38 1
  27   14   39 1
  28   14   40 1
  29   15   18 1
  30   15   41 1
  31   15   42 1
  32   17   19 ar
  33   17   20 ar
  34   18   43 1
  35   18   44 1
  36   18   45 1
  37   19   22 ar
  38   19   46 1
  39   20   23 ar
  40   20   47 1
  41   21   24 1
  42   21   48 1
  43   21   49 1
  44   22   25 ar
  45   22   50 1
  46   23   25 ar
  47   23   51 1
  48   24   26 ar
  49   24   27 ar
  50   25   52 1
  51   26   28 ar
  52   26   53 1
  53   27   29 ar
  54   27   54 1
  55   28   30 ar
  56   28   55 1
  57   29   30 ar
  58   29   56 1
  59   31   57 1
  60   31   58 1
  61   31   59 1

#	End of record

#	Name: 16192899
#	Creating user name:	landrgr1
#	Creation time:	28. 01. 2015 13:52

#	Modifying user name:	landrgr1
#	Modification time:	28. 01. 2015 13:52

#	Program:	corina 3.48 0006  22.01.2010

@<TRIPOS>MOLECULE
16192899
  41   41    0    0    0
SMALL
NO_CHARGES


@<TRIPOS>ATOM
   1 O1             3.7593    -1.2545     0.0732 O.2     
   2 O2            -0.0040     1.1722     0.5720 O.3     
   3 N3             4.7830    -3.6407    -0.3306 N.3     
   4 N4             1.6196    -1.8209     0.2240 N.am    
   5 N5             0.0130    -0.0339     0.4882 N.2     
   6 C6             7.1721    -4.4404    -1.7417 C.3     
   7 C7             6.6038    -3.0226    -1.8482 C.3     
   8 C8             6.8000    -5.0299    -0.3784 C.3     
   9 C9             5.0872    -3.0699    -1.6490 C.3     
  10 C10            5.2777    -5.0190    -0.2218 C.3     
  11 C11            3.3430    -3.5743    -0.0478 C.3     
  12 C12            2.9235    -2.1332     0.0874 C.2     
  13 C13            1.2313    -0.4868     0.3491 C.2     
  14 C14            2.0803     0.6517     0.3514 C.2     
  15 C15            1.2295     1.6928     0.4980 C.2     
  16 C16            1.5963     3.1529     0.5647 C.3     
  17 H17            6.7532    -5.0612    -2.5337 H       
  18 H18            8.2572    -4.4062    -1.8399 H       
  19 H19            7.0522    -2.3921    -1.0804 H       
  20 H20            6.8289    -2.6134    -2.8331 H       
  21 H21            7.1652    -6.0548    -0.3132 H       
  22 H22            7.2515    -4.4311     0.4125 H       
  23 H23            4.6380    -3.6893    -2.4253 H       
  24 H24            4.6812    -2.0602    -1.7100 H       
  25 H25            5.0101    -5.4250     0.7537 H       
  26 H26            4.8277    -5.6293    -1.0048 H       
  27 H27            2.7905    -4.0385    -0.8647 H       
  28 H28            3.1305    -4.1032     0.8813 H       
  29 H29            0.9511    -2.5237     0.2354 H       
  30 H30            3.1559     0.6796     0.2579 H       
  31 H31            0.6921     3.7495     0.6858 H       
  32 H32            2.2597     3.3226     1.4127 H       
  33 H33            2.1022     3.4429    -0.3562 H       
  34 O34           15.5808    12.6555     6.4333 O.3     
  35 O35           14.3336     9.2002     6.4267 O.3     
  36 O36           16.6572    10.7182     6.4127 O.2     
  37 O37           13.2572    11.1374     6.4474 O.2     
  38 C38           15.5990    11.3101     6.4259 C.2     
  39 C39           14.3153    10.5455     6.4341 C.2     
  40 H40           16.4363    13.1061     6.4276 H       
  41 H41           13.4780     8.7495     6.4324 H       
@<TRIPOS>BOND
   1    1   12 2
   2    2    5 1
   3    2   15 1
   4    3    9 1
   5    3   10 1
   6    3   11 1
   7    4   12 am
   8    4   13 1
   9    4   29 1
  10    5   13 2
  11    6    7 1
  12    6    8 1
  13    6   17 1
  14    6   18 1
  15    7    9 1
  16    7   19 1
  17    7   20 1
  18    8   10 1
  19    8   21 1
  20    8   22 1
  21    9   23 1
  22    9   24 1
  23   10   25 1
  24   10   26 1
  25   11   12 1
  26   11   27 1
  27   11   28 1
  28   13   14 1
  29   14   15 2
  30   14   30 1
  31   15   16 1
  32   16   31 1
  33   16   32 1
  34   16   33 1
  35   34   38 1
  36   34   40 1
  37   35   39 1
  38   35   41 1
  39   36   38 2
  40   37   39 2
  41   38   39 1

#	End of record

#	Name: 16192894
#	Creating user name:	landrgr1
#	Creation time:	28. 01. 2015 13:52

#	Modifying user name:	landrgr1
#	Modification time:	28. 01. 2015 13:52

#	Program:	corina 3.48 0006  22.01.2010

@<TRIPOS>MOLECULE
16192894
  34   34    0    0    0
SMALL
NO_CHARGES


@<TRIPOS>ATOM
   1 Cl1            0.0000     0.0000     0.0000 Cl      
   2 H2             0.0000     1.3700     0.0000 H       
   3 F3             5.3989    11.3466     5.3144 F       
   4 N4             8.5544     9.3885     9.4049 N.3     
   5 N5             6.3338    10.9878     9.9909 N.pl3   
   6 C6            10.7545     7.5480    10.5027 C.3     
   7 C7            11.3050     8.8509    11.1161 C.3     
   8 C8             9.2604     7.4205    10.6573 C.3     
   9 C9            10.3991    10.0568    10.8136 C.3     
  10 C10            8.5734     7.9909     9.3972 C.3     
  11 C11            9.8865    10.0250     9.3956 C.3     
  12 C12            7.7529     9.8857     8.3681 C.ar    
  13 C13            6.6468    10.6829     8.6608 C.ar    
  14 C14            8.0613     9.5907     7.0491 C.ar    
  15 C15            5.8575    11.1726     7.6312 C.ar    
  16 C16            7.2704    10.0825     6.0270 C.ar    
  17 C17            6.1688    10.8694     6.3168 C.ar    
  18 H18           11.0020     7.5262     9.4414 H       
  19 H19           11.2328     6.6991    10.9914 H       
  20 H20           11.3836     8.7287    12.1963 H       
  21 H21           12.2979     9.0425    10.7092 H       
  22 H22            8.9941     6.3700    10.7738 H       
  23 H23            8.9355     7.9799    11.5345 H       
  24 H24            9.5514    10.0457    11.4987 H       
  25 H25           10.9663    10.9750    10.9663 H       
  26 H26            7.5486     7.6219     9.3535 H       
  27 H27            9.1111     7.6477     8.5133 H       
  28 H28           10.5668     9.4461     8.7710 H       
  29 H29            9.8063    11.0414     9.0101 H       
  30 H30            8.9198     8.9769     6.8198 H       
  31 H31            5.0000    11.7900     7.8546 H       
  32 H32            7.5125     9.8520     5.0000 H       
  33 H33            6.8866    10.6443    10.7103 H       
  34 H34            5.5641    11.5424    10.1932 H       
@<TRIPOS>BOND
   1    1    2 1
   2    3   17 1
   3    4   10 1
   4    4   11 1
   5    4   12 1
   6    5   13 1
   7    5   33 1
   8    5   34 1
   9    6    7 1
  10    6    8 1
  11    6   18 1
  12    6   19 1
  13    7    9 1
  14    7   20 1
  15    7   21 1
  16    8   10 1
  17    8   22 1
  18    8   23 1
  19    9   11 1
  20    9   24 1
  21    9   25 1
  22   10   26 1
  23   10   27 1
  24   11   28 1
  25   11   29 1
  26   12   13 ar
  27   12   14 ar
  28   13   15 ar
  29   14   16 ar
  30   14   30 1
  31   15   17 ar
  32   15   31 1
  33   16   17 ar
  34   16   32 1

#	End of record

#	Name: 16192871
#	Creating user name:	landrgr1
#	Creation time:	28. 01. 2015 13:52

#	Modifying user name:	landrgr1
#	Modification time:	28. 01. 2015 13:52

#	Program:	corina 3.48 0006  22.01.2010

@<TRIPOS>MOLECULE
16192871
  45   46    0    0    0
SMALL
NO_CHARGES


@<TRIPOS>ATOM
   1 Cl1            0.0000     0.0000     0.0000 Cl      
   2 H2             0.0000     1.3700     0.0000 H       
   3 N3             8.5356    12.9810     8.3868 N.pl3   
   4 N4            10.9975     7.3327     5.5073 N.3     
   5 C5             9.8221    11.1722     8.3648 C.2     
   6 C6             8.5541    11.6128     8.3793 C.2     
   7 C7            10.6864    12.3550     8.3629 C.ar    
   8 C8             9.8240    13.4666     8.3771 C.ar    
   9 C9            10.2712     9.7338     8.3535 C.3     
  10 C10            7.3252    13.8062     8.3972 C.3     
  11 C11           10.4091     9.2539     6.9073 C.3     
  12 C12            7.3321    10.7310     8.3866 C.3     
  13 C13           12.0691    12.5463     8.3507 C.ar    
  14 C14           10.3643    14.7482     8.3792 C.ar    
  15 C15            6.9171    14.0814     9.8216 C.ar    
  16 C16           10.8651     7.7934     6.8959 C.3     
  17 C17           12.5786    13.8144     8.3534 C.ar    
  18 C18           11.7321    14.9142     8.3674 C.ar    
  19 C19            7.4043    15.1968    10.4769 C.ar    
  20 C20            6.0511    13.2216    10.4709 C.ar    
  21 C21            7.0301    15.4492    11.7834 C.ar    
  22 C22            5.6768    13.4740    11.7774 C.ar    
  23 C23            6.1682    14.5866    12.4345 C.ar    
  24 H24           11.2340     9.6498     8.8576 H       
  25 H25            9.5350     9.1192     8.8716 H       
  26 H26            7.5238    14.7490     7.8875 H       
  27 H27            6.5211    13.2783     7.8845 H       
  28 H28            9.4463     9.3379     6.4032 H       
  29 H29           11.1453     9.8684     6.3892 H       
  30 H30            7.0275    10.5236     7.3608 H       
  31 H31            7.5631     9.7941     8.8936 H       
  32 H32            6.5217    11.2376     8.9109 H       
  33 H33           12.7339    11.6952     8.3401 H       
  34 H34            9.7140    15.6104     8.3897 H       
  35 H35           10.1289     7.1789     7.4140 H       
  36 H36           11.8279     7.7094     7.3999 H       
  37 H37           13.6484    13.9619     8.3440 H       
  38 H38           12.1497    15.9102     8.3688 H       
  39 H39            8.0777    15.8708     9.9682 H       
  40 H40            5.6667    12.3527     9.9573 H       
  41 H41           11.2978     6.3700     5.4728 H       
  42 H42           10.1347     7.4607     5.0000 H       
  43 H43            7.4113    16.3203    12.2957 H       
  44 H44            5.0000    12.8024    12.2847 H       
  45 H45            5.8761    14.7836    13.4554 H       
@<TRIPOS>BOND
   1    1    2 1
   2    3    6 1
   3    3    8 1
   4    3   10 1
   5    4   16 1
   6    4   41 1
   7    4   42 1
   8    5    6 2
   9    5    7 1
  10    5    9 1
  11    6   12 1
  12    7    8 ar
  13    7   13 ar
  14    8   14 ar
  15    9   11 1
  16    9   24 1
  17    9   25 1
  18   10   15 1
  19   10   26 1
  20   10   27 1
  21   11   16 1
  22   11   28 1
  23   11   29 1
  24   12   30 1
  25   12   31 1
  26   12   32 1
  27   13   17 ar
  28   13   33 1
  29   14   18 ar
  30   14   34 1
  31   15   19 ar
  32   15   20 ar
  33   16   35 1
  34   16   36 1
  35   17   18 ar
  36   17   37 1
  37   18   38 1
  38   19   21 ar
  39   19   39 1
  40   20   22 ar
  41   20   40 1
  42   21   23 ar
  43   21   43 1
  44   22   23 ar
  45   22   44 1
  46   23   45 1

#	End of record

#	Name: 16192688
#	Creating user name:	landrgr1
#	Creation time:	28. 01. 2015 13:52

#	Modifying user name:	landrgr1
#	Modification time:	28. 01. 2015 13:52

#	Program:	corina 3.48 0006  22.01.2010

@<TRIPOS>MOLECULE
16192688
  58   59    0    0    0
SMALL
NO_CHARGES


@<TRIPOS>ATOM
   1 O1            -0.2458    -7.9507     1.0488 O.2     
   2 O2             3.6663     0.6953     1.1111 O.3     
   3 N3             1.1991    -6.8485    -0.9407 N.3     
   4 N4             0.2007   -10.0468     0.4752 N.am    
   5 N5             1.6711    -4.4202     0.4686 N.3     
   6 C6             0.6690    -8.2078    -1.1115 C.3     
   7 C7             2.1714    -6.7968     0.1600 C.3     
   8 C8             0.1126    -5.8826    -0.7256 C.3     
   9 C9             2.7576    -5.3861     0.2534 C.3     
  10 C10            0.6988    -4.4719    -0.6321 C.3     
  11 C11           -0.2483   -10.6838     1.7218 C.3     
  12 C12            0.6778   -11.0945    -0.4458 C.3     
  13 C13            0.1749    -8.7246     0.2152 C.2     
  14 C14           -0.0120   -12.2015     1.5718 C.3     
  15 C15            1.0796   -12.2761     0.4718 C.3     
  16 C16           -0.4885    -8.1819    -2.1117 C.3     
  17 C17            2.1762    -3.1253     0.6312 C.ar    
  18 C18            1.3082    -2.0631     0.8468 C.ar    
  19 C19            3.5460    -2.9027     0.5827 C.ar    
  20 C20            1.8075    -0.7855     1.0077 C.ar    
  21 C21            4.0435    -1.6244     0.7433 C.ar    
  22 C22            3.1755    -0.5632     0.9535 C.ar    
  23 C23            5.0851     0.8515     1.0437 C.3     
  24 H24            1.4575    -8.8611    -1.4850 H       
  25 H25            1.6737    -7.0466     1.0969 H       
  26 H26            2.9724    -7.5117    -0.0285 H       
  27 H27           -0.5874    -5.9310    -1.5597 H       
  28 H28           -0.4085    -6.1220     0.2013 H       
  29 H29            3.2788    -5.1467    -0.6735 H       
  30 H30            3.4577    -5.3377     1.0875 H       
  31 H31           -0.1021    -3.7571    -0.4437 H       
  32 H32            1.1966    -4.2221    -1.5691 H       
  33 H33            0.3290   -10.3001     2.5630 H       
  34 H34           -1.3092   -10.4874     1.8773 H       
  35 H35           -0.1204   -11.3954    -1.1243 H       
  36 H36            1.5417   -10.7403    -1.0084 H       
  37 H37            0.3519   -12.6293     2.5060 H       
  38 H38           -0.9231   -12.7032     1.2457 H       
  39 H39            1.0285   -13.2230    -0.0657 H       
  40 H40            2.0721   -12.1221     0.8952 H       
  41 H41           -1.2770    -7.5287    -1.7381 H       
  42 H42           -0.1312    -7.8081    -3.0713 H       
  43 H43           -0.8819    -9.1905    -2.2384 H       
  44 H44            0.2429    -2.2359     0.8884 H       
  45 H45            4.2220    -3.7290     0.4195 H       
  46 H46            1.1325     0.0407     1.1754 H       
  47 H47            5.1089    -1.4511     0.7053 H       
  48 H48            5.5540     0.2542     1.8257 H       
  49 H49            5.4415     0.5181     0.0690 H       
  50 H50            5.3422     1.9013     1.1849 H       
  51 O51           12.8776    10.8072     7.5837 O.3     
  52 O52           11.6303     7.3520     7.5771 O.3     
  53 O53           13.9540     8.8700     7.5630 O.2     
  54 O54           10.5540     9.2892     7.5977 O.2     
  55 C55           12.8958     9.4619     7.5763 C.2     
  56 C56           11.6121     8.6973     7.5845 C.2     
  57 H57           13.7331    11.2579     7.5780 H       
  58 H58           10.7748     6.9013     7.5828 H       
@<TRIPOS>BOND
   1    1   13 2
   2    2   22 1
   3    2   23 1
   4    3    6 1
   5    3    7 1
   6    3    8 1
   7    4   11 1
   8    4   12 1
   9    4   13 am
  10    5    9 1
  11    5   10 1
  12    5   17 1
  13    6   13 1
  14    6   16 1
  15    6   24 1
  16    7    9 1
  17    7   25 1
  18    7   26 1
  19    8   10 1
  20    8   27 1
  21    8   28 1
  22    9   29 1
  23    9   30 1
  24   10   31 1
  25   10   32 1
  26   11   14 1
  27   11   33 1
  28   11   34 1
  29   12   15 1
  30   12   35 1
  31   12   36 1
  32   14   15 1
  33   14   37 1
  34   14   38 1
  35   15   39 1
  36   15   40 1
  37   16   41 1
  38   16   42 1
  39   16   43 1
  40   17   18 ar
  41   17   19 ar
  42   18   20 ar
  43   18   44 1
  44   19   21 ar
  45   19   45 1
  46   20   22 ar
  47   20   46 1
  48   21   22 ar
  49   21   47 1
  50   23   48 1
  51   23   49 1
  52   23   50 1
  53   51   55 1
  54   51   57 1
  55   52   56 1
  56   52   58 1
  57   53   55 2
  58   54   56 2
  59   55   56 1

#	End of record

#	Name: 16192666
#	Creating user name:	landrgr1
#	Creation time:	28. 01. 2015 13:52

#	Modifying user name:	landrgr1
#	Modification time:	28. 01. 2015 13:52

#	Program:	corina 3.48 0006  22.01.2010

@<TRIPOS>MOLECULE
16192666
  53   56    0    0    0
SMALL
NO_CHARGES


@<TRIPOS>ATOM
   1 Cl1            0.0000     0.0000     0.0000 Cl      
   2 H2             0.0000     1.3700     0.0000 H       
   3 S3             7.7881    11.2870    10.3269 S.3     
   4 O4             7.1270     9.8584    13.3774 O.3     
   5 O5            15.0754    14.5933     9.9907 O.3     
   6 O6            13.4636    16.1202     9.5312 O.3     
   7 O7             6.1242     7.8194     7.0167 O.3     
   8 N8             8.7649     8.9227    11.1314 N.pl3   
   9 N9             9.8979    12.8568    10.0566 N.ar    
  10 N10            6.9856     8.8227     9.5905 N.2     
  11 C11            8.2359     8.9440    13.5191 C.3     
  12 C12            7.8717     8.0679    14.7381 C.3     
  13 C13            8.3770     8.0794    12.2648 C.3     
  14 C14            6.8899     8.9427    15.5494 C.3     
  15 C15            6.7771    10.2439    14.7245 C.3     
  16 C16           10.1662     9.1665    10.8127 C.3     
  17 C17           10.4721    10.6148    10.5589 C.ar    
  18 C18            7.8120     9.5215    10.3172 C.2     
  19 C19            9.5253    11.6073    10.3120 C.ar    
  20 C20           11.8061    10.9521    10.5715 C.ar    
  21 C21           12.1855    12.2782    10.3136 C.ar    
  22 C22           11.1756    13.2341    10.0403 C.ar    
  23 C23           13.5328    12.6730    10.3187 C.ar    
  24 C24           11.5439    14.5598     9.7605 C.ar    
  25 C25           13.8610    13.9698    10.0482 C.ar    
  26 C26           12.8622    14.9168     9.7658 C.ar    
  27 C27            5.9976     9.5009     8.7479 C.3     
  28 C28            6.2998     9.2137     7.2758 C.3     
  29 C29           14.8455    15.8166     9.2679 C.3     
  30 C30            6.3830     7.4428     5.6627 C.3     
  31 H31            9.1584     9.4929    13.7084 H       
  32 H32            7.3856     7.1472    14.4152 H       
  33 H33            8.7611     7.8448    15.3275 H       
  34 H34            7.4247     7.5952    12.0483 H       
  35 H35            9.1411     7.3200    12.4310 H       
  36 H36            5.9185     8.4546    15.6275 H       
  37 H37            7.2939     9.1521    16.5398 H       
  38 H38            7.4759    10.9921    15.0987 H       
  39 H39            5.7570    10.6265    14.7569 H       
  40 H40           10.7798     8.8195    11.6440 H       
  41 H41           10.4282     8.5924     9.9240 H       
  42 H42           12.5552    10.2021    10.7786 H       
  43 H43           14.3073    11.9525    10.5365 H       
  44 H44           10.7854    15.2965     9.5409 H       
  45 H45            5.0000     9.1357     8.9920 H       
  46 H46            6.0448    10.5753     8.9256 H       
  47 H47            7.3284     9.4978     7.0539 H       
  48 H48            5.6203     9.7886     6.6465 H       
  49 H49           15.4901    16.6105     9.6451 H       
  50 H50           15.0070    15.6662     8.2005 H       
  51 H51            6.2277     6.3700     5.5480 H       
  52 H52            5.7052     7.9809     5.0000 H       
  53 H53            7.4134     7.6901     5.4074 H       
@<TRIPOS>BOND
   1    1    2 1
   2    3   18 1
   3    3   19 1
   4    4   11 1
   5    4   15 1
   6    5   25 1
   7    5   29 1
   8    6   26 1
   9    6   29 1
  10    7   28 1
  11    7   30 1
  12    8   13 1
  13    8   16 1
  14    8   18 1
  15    9   19 ar
  16    9   22 ar
  17   10   18 2
  18   10   27 1
  19   11   12 1
  20   11   13 1
  21   11   31 1
  22   12   14 1
  23   12   32 1
  24   12   33 1
  25   13   34 1
  26   13   35 1
  27   14   15 1
  28   14   36 1
  29   14   37 1
  30   15   38 1
  31   15   39 1
  32   16   17 1
  33   16   40 1
  34   16   41 1
  35   17   19 ar
  36   17   20 ar
  37   20   21 ar
  38   20   42 1
  39   21   22 ar
  40   21   23 ar
  41   22   24 ar
  42   23   25 ar
  43   23   43 1
  44   24   26 ar
  45   24   44 1
  46   25   26 ar
  47   27   28 1
  48   27   45 1
  49   27   46 1
  50   28   47 1
  51   28   48 1
  52   29   49 1
  53   29   50 1
  54   30   51 1
  55   30   52 1
  56   30   53 1

#	End of record

#	Name: 16192621
#	Creating user name:	landrgr1
#	Creation time:	28. 01. 2015 13:52

#	Modifying user name:	landrgr1
#	Modification time:	28. 01. 2015 13:52

#	Program:	corina 3.48 0006  22.01.2010

@<TRIPOS>MOLECULE
16192621
  28   28    0    0    0
SMALL
NO_CHARGES


@<TRIPOS>ATOM
   1 Cl1            0.0000     0.0000     0.0000 Cl      
   2 H2             0.0000     1.3700     0.0000 H       
   3 N3            10.0434     9.5186     5.9241 N.ar    
   4 N4             5.6211     9.1021    10.3438 N.pl3   
   5 C5             8.7614     7.4373     5.9252 C.3     
   6 C6             7.9270     7.8798     7.0995 C.ar    
   7 C7            10.0613     8.1999     5.9169 C.ar    
   8 C8             7.0417     8.9329     6.9589 C.ar    
   9 C9             8.0441     7.2282     8.3136 C.ar    
  10 C10            6.3945     8.6920     9.2554 C.ar    
  11 C11            6.2755     9.3409     8.0330 C.ar    
  12 C12            7.2805     7.6308     9.3916 C.ar    
  13 C13           11.2580     7.5093     5.9013 C.ar    
  14 C14           12.4485     8.2204     5.8938 C.ar    
  15 C15           11.1553    10.2271     5.9173 C.ar    
  16 C16           12.3898     9.6054     5.9022 C.ar    
  17 H17            8.9668     6.3700     6.0071 H       
  18 H18            8.2194     7.6331     5.0000 H       
  19 H19            6.9497     9.4369     6.0082 H       
  20 H20            8.7332     6.4033     8.4187 H       
  21 H21            5.5848    10.1638     7.9228 H       
  22 H22            7.3722     7.1213    10.3394 H       
  23 H23           11.2661     6.4293     5.8954 H       
  24 H24           13.3988     7.7074     5.8819 H       
  25 H25           11.1010    11.3057     5.9233 H       
  26 H26           13.2971    10.1912     5.8971 H       
  27 H27            5.0000     9.8408    10.2465 H       
  28 H28            5.7050     8.6482    11.1969 H       
@<TRIPOS>BOND
   1    1    2 1
   2    3    7 ar
   3    3   15 ar
   4    4   10 1
   5    4   27 1
   6    4   28 1
   7    5    6 1
   8    5    7 1
   9    5   17 1
  10    5   18 1
  11    6    8 ar
  12    6    9 ar
  13    7   13 ar
  14    8   11 ar
  15    8   19 1
  16    9   12 ar
  17    9   20 1
  18   10   11 ar
  19   10   12 ar
  20   11   21 1
  21   12   22 1
  22   13   14 ar
  23   13   23 1
  24   14   16 ar
  25   14   24 1
  26   15   16 ar
  27   15   25 1
  28   16   26 1

#	End of record

#	Name: 16192563
#	Creating user name:	landrgr1
#	Creation time:	28. 01. 2015 13:52

#	Modifying user name:	landrgr1
#	Modification time:	28. 01. 2015 13:52

#	Program:	corina 3.48 0006  22.01.2010

@<TRIPOS>MOLECULE
16192563
  52   54    0    0    0
SMALL
NO_CHARGES


@<TRIPOS>ATOM
   1 Cl1            0.0000     0.0000     0.0000 Cl      
   2 H2             0.0000     1.3700     0.0000 H       
   3 O3             6.0029    11.5323     9.0147 O.3     
   4 O4            11.3013     8.9295     7.8755 O.3     
   5 O5             9.0855    12.0602     5.0814 O.3     
   6 O6            14.8051    10.8040     7.5167 O.2     
   7 N7             8.1217    10.1892     7.7519 N.3     
   8 C8             6.7688     9.6142     7.7624 C.3     
   9 C9             8.0635    11.6582     7.7610 C.3     
  10 C10            6.0223    10.1023     9.0068 C.3     
  11 C11            7.3041    12.1258     9.0054 C.3     
  12 C12            8.8928     9.7001     6.6012 C.3     
  13 C13           10.1722    10.4874     6.4825 C.ar    
  14 C14            6.7345     9.5941    10.2619 C.3     
  15 C15            7.1703    13.6497     8.9798 C.3     
  16 C16           11.3189    10.0556     7.1381 C.ar    
  17 C17           10.2079    11.6420     5.7199 C.ar    
  18 C18           12.4974    10.8127     7.0168 C.ar    
  19 C19           11.3843    12.3794     5.6010 C.ar    
  20 C20           12.5199    11.9715     6.2413 C.ar    
  21 C21           13.6970    10.3475     7.7392 C.2     
  22 C22           13.4706     9.2943     8.7478 C.2     
  23 C23           12.2701     8.6581     8.7495 C.2     
  24 C24           14.5232     8.9401     9.7307 C.ar    
  25 C25           15.1064     7.6745     9.7057 C.ar    
  26 C26           14.9371     9.8737    10.6793 C.ar    
  27 C27           16.0854     7.3504    10.6229 C.ar    
  28 C28           15.9169     9.5386    11.5916 C.ar    
  29 C29           16.4878     8.2789    11.5660 C.ar    
  30 H30            6.2318     9.9309     6.8683 H       
  31 H31            6.8357     8.5264     7.7814 H       
  32 H32            9.0756    12.0625     7.7790 H       
  33 H33            7.5472    12.0075     6.8669 H       
  34 H34            5.0000     9.7245     8.9895 H       
  35 H35            7.8488    11.8225     9.8996 H       
  36 H36            9.1272     8.6450     6.7430 H       
  37 H37            8.3050     9.8226     5.6915 H       
  38 H38            6.2048     9.9451    11.1476 H       
  39 H39            6.7490     8.5042    10.2554 H       
  40 H40            7.7572     9.9709    10.2771 H       
  41 H41            6.6262    13.9816     9.8640 H       
  42 H42            8.1623    14.1014     8.9728 H       
  43 H43            6.6272    13.9517     8.0843 H       
  44 H44           11.3983    13.2766     5.0000 H       
  45 H45           13.4308    12.5441     6.1478 H       
  46 H46           12.0925     7.8965     9.4943 H       
  47 H47            8.5339    12.6569     5.6057 H       
  48 H48           14.7924     6.9486     8.9703 H       
  49 H49           14.4920    10.8575    10.7002 H       
  50 H50           16.5379     6.3700    10.6044 H       
  51 H51           16.2386    10.2613    12.3268 H       
  52 H52           17.2538     8.0208    12.2823 H       
@<TRIPOS>BOND
   1    1    2 1
   2    3   10 1
   3    3   11 1
   4    4   16 1
   5    4   23 1
   6    5   17 1
   7    5   47 1
   8    6   21 2
   9    7    8 1
  10    7    9 1
  11    7   12 1
  12    8   10 1
  13    8   30 1
  14    8   31 1
  15    9   11 1
  16    9   32 1
  17    9   33 1
  18   10   14 1
  19   10   34 1
  20   11   15 1
  21   11   35 1
  22   12   13 1
  23   12   36 1
  24   12   37 1
  25   13   16 ar
  26   13   17 ar
  27   14   38 1
  28   14   39 1
  29   14   40 1
  30   15   41 1
  31   15   42 1
  32   15   43 1
  33   16   18 ar
  34   17   19 ar
  35   18   20 ar
  36   18   21 1
  37   19   20 ar
  38   19   44 1
  39   20   45 1
  40   21   22 1
  41   22   23 2
  42   22   24 1
  43   23   46 1
  44   24   25 ar
  45   24   26 ar
  46   25   27 ar
  47   25   48 1
  48   26   28 ar
  49   26   49 1
  50   27   29 ar
  51   27   50 1
  52   28   29 ar
  53   28   51 1
  54   29   52 1

#	End of record

#	Name: 16192544
#	Creating user name:	landrgr1
#	Creation time:	28. 01. 2015 13:52

#	Modifying user name:	landrgr1
#	Modification time:	28. 01. 2015 13:52

#	Program:	corina 3.48 0006  22.01.2010

@<TRIPOS>MOLECULE
16192544
  48   49    0    0    0
SMALL
NO_CHARGES


@<TRIPOS>ATOM
   1 O1            -1.6105    -0.0883     0.2982 O.2     
   2 N2             0.4781     1.5491     0.4911 N.2     
   3 N3             0.5687     0.1599     0.6476 N.am    
   4 N4            -0.2628    -4.7874     1.0066 N.ar    
   5 C5            -0.3896     6.2952    -1.2115 C.3     
   6 C6            -0.8176     7.7482    -0.9953 C.3     
   7 C7             0.3313     8.4977    -0.3097 C.3     
   8 C8             0.1551     5.7218     0.0642 C.2     
   9 C9             0.4854     7.9550     1.1126 C.3     
  10 C10            0.5454     6.4553     1.0896 C.2     
  11 C11           -1.5980     5.4722    -1.6623 C.3     
  12 C12            0.6903     6.2403    -2.2940 C.3     
  13 C13            0.2588     4.2666     0.1777 C.2     
  14 C14            1.0813     5.7469     2.3070 C.3     
  15 C15            1.4545     3.6924     0.4414 C.2     
  16 C16            1.5461     2.2883     0.5996 C.2     
  17 C17            2.8785     1.6484     0.8935 C.3     
  18 C18           -0.5357    -0.6044     0.5353 C.2     
  19 C19           -0.4399    -2.0726     0.7007 C.ar    
  20 C20           -1.5735    -2.8841     0.5882 C.ar    
  21 C21            0.7867    -2.6867     0.9739 C.ar    
  22 C22           -1.4385    -4.2492     0.7499 C.ar    
  23 C23            0.8303    -4.0594     1.1206 C.ar    
  24 H24           -1.0355     8.2127    -1.9570 H       
  25 H25           -1.7041     7.7783    -0.3617 H       
  26 H26            1.2557     8.3377    -0.8648 H       
  27 H27            0.1030     9.5628    -0.2724 H       
  28 H28            1.4031     8.3466     1.5514 H       
  29 H29           -0.3654     8.2734     1.7150 H       
  30 H30           -2.0464     5.9363    -2.5408 H       
  31 H31           -1.2766     4.4605    -1.9099 H       
  32 H32           -2.3320     5.4335    -0.8574 H       
  33 H33            1.5508     6.8306    -1.9791 H       
  34 H34            0.9965     5.2059    -2.4495 H       
  35 H35            0.2928     6.6454    -3.2246 H       
  36 H36           -0.6195     3.6511     0.0508 H       
  37 H37            2.1548     5.5946     2.1955 H       
  38 H38            0.8903     6.3522     3.1931 H       
  39 H39            0.5864     4.7815     2.4129 H       
  40 H40            2.3395     4.3048     0.5314 H       
  41 H41            3.3730     1.3919    -0.0434 H       
  42 H42            3.5010     2.3462     1.4537 H       
  43 H43            2.7253     0.7444     1.4829 H       
  44 H44            1.4263    -0.2519     0.8368 H       
  45 H45           -2.5399    -2.4499     0.3785 H       
  46 H46            1.6862    -2.0965     1.0682 H       
  47 H47           -2.3078    -4.8842     0.6646 H       
  48 H48            1.7726    -4.5428     1.3320 H       
@<TRIPOS>BOND
   1    1   18 2
   2    2    3 1
   3    2   16 2
   4    3   18 am
   5    3   44 1
   6    4   22 ar
   7    4   23 ar
   8    5    6 1
   9    5    8 1
  10    5   11 1
  11    5   12 1
  12    6    7 1
  13    6   24 1
  14    6   25 1
  15    7    9 1
  16    7   26 1
  17    7   27 1
  18    8   10 2
  19    8   13 1
  20    9   10 1
  21    9   28 1
  22    9   29 1
  23   10   14 1
  24   11   30 1
  25   11   31 1
  26   11   32 1
  27   12   33 1
  28   12   34 1
  29   12   35 1
  30   13   15 2
  31   13   36 1
  32   14   37 1
  33   14   38 1
  34   14   39 1
  35   15   16 1
  36   15   40 1
  37   16   17 1
  38   17   41 1
  39   17   42 1
  40   17   43 1
  41   18   19 1
  42   19   20 ar
  43   19   21 ar
  44   20   22 ar
  45   20   45 1
  46   21   23 ar
  47   21   46 1
  48   22   47 1
  49   23   48 1

#	End of record

#	Name: 16192533
#	Creating user name:	landrgr1
#	Creation time:	28. 01. 2015 13:52

#	Modifying user name:	landrgr1
#	Modification time:	28. 01. 2015 13:52

#	Program:	corina 3.48 0006  22.01.2010

@<TRIPOS>MOLECULE
16192533
  52   52    0    0    0
SMALL
NO_CHARGES


@<TRIPOS>ATOM
   1 Cl1            0.0000     0.0000     0.0000 Cl      
   2 H2             0.0000     1.3700     0.0000 H       
   3 S3             8.6583    12.7375     9.9880 S.3     
   4 O4             6.9444     6.3700    11.0915 O.3     
   5 O5            13.4099    11.2153     9.9349 O.3     
   6 O6            12.5440    15.7812     9.9668 O.2     
   7 N7             7.2674     8.9292     9.9808 N.3     
   8 N8            10.8228    14.3581     9.9760 N.am    
   9 N9            11.2382    12.0594     9.9601 N.2     
  10 C10            5.9253     8.3828    10.2290 C.3     
  11 C11            8.2310     8.4100    10.9622 C.3     
  12 C12            7.2474    10.3981     9.9889 C.3     
  13 C13            5.9803     6.8547    10.1529 C.3     
  14 C14            8.2628     6.8816    10.8787 C.3     
  15 C15           16.5127    14.2924     8.4854 C.3     
  16 C16           15.0048    14.0337     8.4979 C.3     
  17 C17            8.6828    10.9277     9.9780 C.3     
  18 C18           16.9808    14.5107     7.0451 C.3     
  19 C19           14.5368    13.8155     9.9381 C.3     
  20 C20           18.4887    14.7694     7.0326 C.3     
  21 C21           13.0515    13.5606     9.9504 C.2     
  22 C22           10.3891    13.0670     9.9732 C.2     
  23 C23           12.1451    14.6274     9.9648 C.2     
  24 C24           12.5578    12.2667     9.9487 C.2     
  25 C25           18.9567    14.9876     5.5924 C.3     
  26 H26            5.5864     8.6859    11.2197 H       
  27 H27            5.2337     8.7601     9.4758 H       
  28 H28            9.2223     8.8072    10.7442 H       
  29 H29            7.9289     8.7135    11.9646 H       
  30 H30            6.7202    10.7592     9.1058 H       
  31 H31            6.7372    10.7496    10.8857 H       
  32 H32            6.2674     6.5505     9.1463 H       
  33 H33            5.0000     6.4428    10.3925 H       
  34 H34            8.9333     6.4893    11.6433 H       
  35 H35            8.6163     6.5783     9.8933 H       
  36 H36           16.7340    15.1803     9.0778 H       
  37 H37           17.0323    13.4335     8.9101 H       
  38 H38           14.4852    14.8926     8.0732 H       
  39 H39           14.7836    13.1459     7.9055 H       
  40 H40            9.1930    10.5761     9.0812 H       
  41 H41            9.2100    10.5666    10.8611 H       
  42 H42           16.7595    13.6228     6.4527 H       
  43 H43           16.4612    15.3696     6.6204 H       
  44 H44           15.0563    12.9565    10.3628 H       
  45 H45           14.7580    14.7033    10.5305 H       
  46 H46           18.7099    15.6572     7.6250 H       
  47 H47           19.0083    13.9105     7.4573 H       
  48 H48           20.0310    15.1720     5.5835 H       
  49 H49           18.7355    14.0998     5.0000 H       
  50 H50           18.4372    15.8466     5.1677 H       
  51 H51           10.1804    15.0849     9.9820 H       
  52 H52           12.9712    10.3535     9.9344 H       
@<TRIPOS>BOND
   1    1    2 1
   2    3   17 1
   3    3   22 1
   4    4   13 1
   5    4   14 1
   6    5   24 1
   7    5   52 1
   8    6   23 2
   9    7   10 1
  10    7   11 1
  11    7   12 1
  12    8   22 1
  13    8   23 am
  14    8   51 1
  15    9   22 2
  16    9   24 1
  17   10   13 1
  18   10   26 1
  19   10   27 1
  20   11   14 1
  21   11   28 1
  22   11   29 1
  23   12   17 1
  24   12   30 1
  25   12   31 1
  26   13   32 1
  27   13   33 1
  28   14   34 1
  29   14   35 1
  30   15   16 1
  31   15   18 1
  32   15   36 1
  33   15   37 1
  34   16   19 1
  35   16   38 1
  36   16   39 1
  37   17   40 1
  38   17   41 1
  39   18   20 1
  40   18   42 1
  41   18   43 1
  42   19   21 1
  43   19   44 1
  44   19   45 1
  45   20   25 1
  46   20   46 1
  47   20   47 1
  48   21   23 1
  49   21   24 2
  50   25   48 1
  51   25   49 1
  52   25   50 1

#	End of record

#	Name: 16192495
#	Creating user name:	landrgr1
#	Creation time:	28. 01. 2015 13:52

#	Modifying user name:	landrgr1
#	Modification time:	28. 01. 2015 13:52

#	Program:	corina 3.48 0006  22.01.2010

@<TRIPOS>MOLECULE
16192495
  51   56    0    0    0
SMALL
NO_CHARGES


@<TRIPOS>ATOM
   1 O1            -0.0164     1.3611     0.0095 O.3     
   2 O2             2.0365     0.6693    -0.6528 O.3     
   3 N3            -0.0719    -4.1004     3.2117 N.3     
   4 N4            -3.0337    -3.2652     0.1597 N.pl3   
   5 N5            -3.6672    -4.3942     0.6947 N.2     
   6 C6             2.7233    -2.8276     4.5431 C.3     
   7 C7             0.8632    -3.3336     6.0945 C.3     
   8 C8             0.4958    -1.8467     4.0642 C.3     
   9 C9             1.0150    -4.6531     3.9817 C.3     
  10 C10            2.3528    -2.9899     6.0183 C.3     
  11 C11            1.9849    -1.6029     3.9945 C.3     
  12 C12            0.0212    -2.2503     5.4445 C.3     
  13 C13            2.3723    -4.0611     3.7396 C.3     
  14 C14            0.6428    -4.7022     5.4608 C.3     
  15 C15           -0.0462    -2.6907     2.9526 C.3     
  16 C16           -0.2780    -4.8600     1.9714 C.3     
  17 C17           -1.5612    -4.4160     1.3177 C.2     
  18 C18           -1.7298    -3.2945     0.5554 C.2     
  19 C19           -2.7880    -5.0769     1.3833 C.2     
  20 C20           -0.6896    -2.2967     0.2216 C.ar    
  21 C21           -0.9727    -0.9339     0.3145 C.ar    
  22 C22            0.5772    -2.7168    -0.1851 C.ar    
  23 C23            0.0021    -0.0041     0.0020 C.ar    
  24 C24            1.5457    -1.7853    -0.4966 C.ar    
  25 C25            1.2655    -0.4299    -0.4054 C.ar    
  26 C26            1.3657     1.7642    -0.0015 C.3     
  27 H27            3.7971    -2.6580     4.4643 H       
  28 H28            0.5814    -3.4030     7.1452 H       
  29 H29            0.0497    -0.8663     3.8970 H       
  30 H30            1.0887    -5.6978     3.6795 H       
  31 H31            2.9401    -3.7952     6.4595 H       
  32 H32            2.5441    -2.0584     6.5512 H       
  33 H33            2.2387    -0.7271     4.5918 H       
  34 H34            2.2781    -1.4351     2.9582 H       
  35 H35           -1.0057    -2.6077     5.3680 H       
  36 H36            0.0321    -1.3697     6.0868 H       
  37 H37            2.4466    -3.8077     2.6820 H       
  38 H38            3.1179    -4.8269     3.9533 H       
  39 H39            1.2653    -5.4402     5.9668 H       
  40 H40           -0.4054    -4.9835     5.5616 H       
  41 H41            0.5596    -2.5166     2.0634 H       
  42 H42           -1.0635    -2.3630     2.7383 H       
  43 H43            0.5562    -4.6811     1.2929 H       
  44 H44           -0.3369    -5.9236     2.2022 H       
  45 H45           -2.9802    -5.9978     1.9136 H       
  46 H46           -3.4477    -2.5866    -0.3962 H       
  47 H47           -1.9520    -0.6053     0.6299 H       
  48 H48            0.7992    -3.7712    -0.2567 H       
  49 H49            2.5259    -2.1124    -0.8107 H       
  50 H50            1.4917     2.6844    -0.5721 H       
  51 H51            1.7362     1.8896     1.0159 H       
@<TRIPOS>BOND
   1    1   23 1
   2    1   26 1
   3    2   25 1
   4    2   26 1
   5    3    9 1
   6    3   15 1
   7    3   16 1
   8    4    5 1
   9    4   18 1
  10    4   46 1
  11    5   19 2
  12    6   10 1
  13    6   11 1
  14    6   13 1
  15    6   27 1
  16    7   10 1
  17    7   12 1
  18    7   14 1
  19    7   28 1
  20    8   11 1
  21    8   12 1
  22    8   15 1
  23    8   29 1
  24    9   13 1
  25    9   14 1
  26    9   30 1
  27   10   31 1
  28   10   32 1
  29   11   33 1
  30   11   34 1
  31   12   35 1
  32   12   36 1
  33   13   37 1
  34   13   38 1
  35   14   39 1
  36   14   40 1
  37   15   41 1
  38   15   42 1
  39   16   17 1
  40   16   43 1
  41   16   44 1
  42   17   18 2
  43   17   19 1
  44   18   20 1
  45   19   45 1
  46   20   21 ar
  47   20   22 ar
  48   21   23 ar
  49   21   47 1
  50   22   24 ar
  51   22   48 1
  52   23   25 ar
  53   24   25 ar
  54   24   49 1
  55   26   50 1
  56   26   51 1

#	End of record

#	Name: 16192322
#	Creating user name:	landrgr1
#	Creation time:	28. 01. 2015 13:52

#	Modifying user name:	landrgr1
#	Modification time:	28. 01. 2015 13:52

#	Program:	corina 3.48 0006  22.01.2010

@<TRIPOS>MOLECULE
16192322
  53   55    0    0    0
SMALL
NO_CHARGES


@<TRIPOS>ATOM
   1 S1            -0.0218     1.7577     0.0117 S.3     
   2 O2            -4.9367    -3.5616     2.1004 O.2     
   3 N3            -1.5828    -1.2085     1.3958 N.3     
   4 N4             2.1547     0.5867    -0.0154 N.2     
   5 C5            -3.3127    -2.0532     2.9104 C.3     
   6 C6            -2.2570    -2.8741     3.6563 C.3     
   7 C7            -2.8844    -1.8861     1.4508 C.3     
   8 C8            -0.9014    -2.1714     3.5426 C.3     
   9 C9            -0.5429    -2.0009     2.0646 C.3     
  10 C10           -4.6382    -2.7679     2.9672 C.2     
  11 C11           -1.2043    -0.9072     0.0087 C.3     
  12 C12           -5.5705    -2.5024     4.0745 C.ar    
  13 C13           -8.2795    -1.7318     7.2933 C.3     
  14 C14            0.0021    -0.0041     0.0020 C.2     
  15 C15           -7.3249    -2.0036     6.1594 C.ar    
  16 C16           -6.8016    -3.1636     4.1307 C.ar    
  17 C17           -5.2275    -1.5920     5.0792 C.ar    
  18 C18           -7.6694    -2.9099     5.1717 C.ar    
  19 C19           -6.1062    -1.3491     6.1137 C.ar    
  20 C20           -8.5473    -3.0303     8.0569 C.3     
  21 C21           -7.6648    -0.7001     8.2414 C.3     
  22 C22           -9.5957    -1.1890     6.7330 C.3     
  23 C23            1.2790    -0.3980    -0.0123 C.2     
  24 C24            1.6876     1.7894    -0.0044 C.2     
  25 C25            2.5271     3.0409    -0.0065 C.3     
  26 H26           -3.4071    -1.0724     3.3765 H       
  27 H27           -2.5365    -2.9588     4.7064 H       
  28 H28           -2.1900    -3.8684     3.2148 H       
  29 H29           -3.6269    -1.2899     0.9204 H       
  30 H30           -2.8035    -2.8666     0.9815 H       
  31 H31           -0.9579    -1.1924     4.0187 H       
  32 H32           -0.1373    -2.7727     4.0353 H       
  33 H33           -0.4731    -2.9808     1.5925 H       
  34 H34            0.4151    -1.4880     1.9801 H       
  35 H35           -0.9670    -1.8344    -0.5128 H       
  36 H36           -2.0335    -0.4095    -0.4942 H       
  37 H37           -7.0720    -3.8709     3.3606 H       
  38 H38           -4.2767    -1.0809     5.0451 H       
  39 H39           -8.6221    -3.4169     5.2145 H       
  40 H40           -5.8447    -0.6430     6.8879 H       
  41 H41           -7.6096    -3.4170     8.4562 H       
  42 H42           -9.2378    -2.8337     8.8771 H       
  43 H43           -8.9852    -3.7652     7.3816 H       
  44 H44           -7.4741     0.2250     7.6973 H       
  45 H45           -8.3553    -0.5035     9.0615 H       
  46 H46           -6.7272    -1.0868     8.6406 H       
  47 H47          -10.0336    -1.9240     6.0576 H       
  48 H48          -10.2862    -0.9924     7.5532 H       
  49 H49           -9.4050    -0.2639     6.1890 H       
  50 H50            1.5695    -1.4382    -0.0210 H       
  51 H51            2.7393     3.3378     1.0206 H       
  52 H52            3.4637     2.8493    -0.5302 H       
  53 H53            1.9856     3.8409    -0.5114 H       
@<TRIPOS>BOND
   1    1   14 1
   2    1   24 1
   3    2   10 2
   4    3    7 1
   5    3    9 1
   6    3   11 1
   7    4   23 1
   8    4   24 2
   9    5    6 1
  10    5    7 1
  11    5   10 1
  12    5   26 1
  13    6    8 1
  14    6   27 1
  15    6   28 1
  16    7   29 1
  17    7   30 1
  18    8    9 1
  19    8   31 1
  20    8   32 1
  21    9   33 1
  22    9   34 1
  23   10   12 1
  24   11   14 1
  25   11   35 1
  26   11   36 1
  27   12   16 ar
  28   12   17 ar
  29   13   15 1
  30   13   20 1
  31   13   21 1
  32   13   22 1
  33   14   23 2
  34   15   18 ar
  35   15   19 ar
  36   16   18 ar
  37   16   37 1
  38   17   19 ar
  39   17   38 1
  40   18   39 1
  41   19   40 1
  42   20   41 1
  43   20   42 1
  44   20   43 1
  45   21   44 1
  46   21   45 1
  47   21   46 1
  48   22   47 1
  49   22   48 1
  50   22   49 1
  51   23   50 1
  52   24   25 1
  53   25   51 1
  54   25   52 1
  55   25   53 1

#	End of record

#	Name: 16192321
#	Creating user name:	landrgr1
#	Creation time:	28. 01. 2015 13:52

#	Modifying user name:	landrgr1
#	Modification time:	28. 01. 2015 13:52

#	Program:	corina 3.48 0006  22.01.2010

@<TRIPOS>MOLECULE
16192321
  55   58    0    0    0
SMALL
NO_CHARGES


@<TRIPOS>ATOM
   1 O1            -0.0164     1.3548     0.0095 O.3     
   2 N2            -0.7717    -5.6097    -0.6051 N.3     
   3 N3            -4.5070    -3.5115     0.3919 N.pl3   
   4 N4            -3.5428    -2.5246     0.6340 N.2     
   5 N5             1.2910    -6.6431     0.8601 N.ar    
   6 N6             2.8551    -8.2844     1.2624 N.ar    
   7 C7             0.3537    -6.1726    -1.3631 C.3     
   8 C8            -1.6741    -4.8551    -1.4850 C.3     
   9 C9            -2.6702    -4.0935    -0.6490 C.2     
  10 C10           -2.4364    -2.8705     0.0100 C.2     
  11 C11           -3.9451    -4.4630    -0.3985 C.2     
  12 C12            1.1437    -5.0392    -2.0204 C.3     
  13 C13           -1.4989    -6.6621     0.1171 C.3     
  14 C14            1.2556    -6.9379    -0.4293 C.ar    
  15 C15           -1.1651    -2.1051     0.0014 C.ar    
  16 C16           -5.8190    -3.5190     0.8835 C.ar    
  17 C17            2.0596    -7.9598    -0.9097 C.ar    
  18 C18           -1.1882    -0.7129     0.0096 C.ar    
  19 C19            0.0556    -2.7779    -0.0089 C.ar    
  20 C20           -6.2657    -2.4808     1.6903 C.ar    
  21 C21           -6.6771    -4.5618     0.5604 C.ar    
  22 C22            0.0021    -0.0041     0.0020 C.ar    
  23 C23            1.2368    -2.0638    -0.0164 C.ar    
  24 C24            2.8729    -8.6351    -0.0136 C.ar    
  25 C25            1.2133    -0.6815    -0.0136 C.ar    
  26 C26            2.0775    -7.3074     1.6833 C.ar    
  27 C27           -7.5595    -2.4911     2.1734 C.ar    
  28 C28           -7.9698    -4.5663     1.0466 C.ar    
  29 C29           -8.4099    -3.5339     1.8544 C.ar    
  30 C30            1.2479     2.0208     0.0010 C.3     
  31 H31           -0.0265    -6.8444    -2.1328 H       
  32 H32           -1.0940    -4.1552    -2.0864 H       
  33 H33           -2.2034    -5.5460    -2.1413 H       
  34 H34           -4.4314    -5.3562    -0.7620 H       
  35 H35            0.4914    -4.4857    -2.6958 H       
  36 H36            1.5239    -4.3674    -1.2508 H       
  37 H37            1.9787    -5.4569    -2.5828 H       
  38 H38           -0.8227    -7.1591     0.8127 H       
  39 H39           -2.3267    -6.2179     0.6698 H       
  40 H40           -1.8868    -7.3901    -0.5953 H       
  41 H41            2.0522    -8.2235    -1.9569 H       
  42 H42           -2.1315    -0.1871     0.0214 H       
  43 H43            0.0773    -3.8576    -0.0108 H       
  44 H44           -5.6019    -1.6663     1.9400 H       
  45 H45           -6.3342    -5.3682    -0.0708 H       
  46 H46            2.1819    -2.5864    -0.0241 H       
  47 H47            3.5129    -9.4365    -0.3521 H       
  48 H48            2.1402    -0.1272    -0.0195 H       
  49 H49            2.0847    -7.0439     2.7307 H       
  50 H50           -7.9073    -1.6841     2.8012 H       
  51 H51           -8.6377    -5.3771     0.7956 H       
  52 H52           -9.4211    -3.5398     2.2337 H       
  53 H53            1.8173     1.7308     0.8840 H       
  54 H54            1.8003     1.7404    -0.8958 H       
  55 H55            1.0905     3.0994     0.0083 H       
@<TRIPOS>BOND
   1    1   22 1
   2    1   30 1
   3    2    7 1
   4    2    8 1
   5    2   13 1
   6    3    4 1
   7    3   11 1
   8    3   16 1
   9    4   10 2
  10    5   14 ar
  11    5   26 ar
  12    6   24 ar
  13    6   26 ar
  14    7   12 1
  15    7   14 1
  16    7   31 1
  17    8    9 1
  18    8   32 1
  19    8   33 1
  20    9   10 1
  21    9   11 2
  22   10   15 1
  23   11   34 1
  24   12   35 1
  25   12   36 1
  26   12   37 1
  27   13   38 1
  28   13   39 1
  29   13   40 1
  30   14   17 ar
  31   15   18 ar
  32   15   19 ar
  33   16   20 ar
  34   16   21 ar
  35   17   24 ar
  36   17   41 1
  37   18   22 ar
  38   18   42 1
  39   19   23 ar
  40   19   43 1
  41   20   27 ar
  42   20   44 1
  43   21   28 ar
  44   21   45 1
  45   22   25 ar
  46   23   25 ar
  47   23   46 1
  48   24   47 1
  49   25   48 1
  50   26   49 1
  51   27   29 ar
  52   27   50 1
  53   28   29 ar
  54   28   51 1
  55   29   52 1
  56   30   53 1
  57   30   54 1
  58   30   55 1

#	End of record

#	Name: 16192319
#	Creating user name:	landrgr1
#	Creation time:	28. 01. 2015 13:52

#	Modifying user name:	landrgr1
#	Modification time:	28. 01. 2015 13:52

#	Program:	corina 3.48 0006  22.01.2010

@<TRIPOS>MOLECULE
16192319
  65   67    0    0    0
SMALL
NO_CHARGES


@<TRIPOS>ATOM
   1 O1            -3.2909    -2.4559     0.7248 O.2     
   2 O2            -0.0161     1.3388     0.0094 O.3     
   3 N3            -6.3332    -4.6483     5.9126 N.3     
   4 N4            -8.4928    -5.9791     9.4524 N.pl3   
   5 N5            -7.9002    -7.1930     9.0817 N.2     
   6 N6            -1.5874    -1.2008     1.3915 N.am    
   7 C7            -4.6641    -3.5227     4.5170 C.3     
   8 C8            -5.9639    -4.3304     4.5273 C.3     
   9 C9            -3.5555    -4.3403     5.1857 C.3     
  10 C10           -3.9857    -4.6993     6.6107 C.3     
  11 C11           -5.3052    -5.4730     6.5603 C.3     
  12 C12           -4.2681    -3.2106     3.0725 C.3     
  13 C13           -7.6468    -5.3032     5.9702 C.3     
  14 C14           -3.0393    -2.2990     3.0661 C.3     
  15 C15           -7.8837    -5.8324     7.3612 C.2     
  16 C16           -8.4705    -5.1612     8.3792 C.2     
  17 C17           -7.5356    -7.1040     7.8283 C.2     
  18 C18           -2.6493    -1.9916     1.6433 C.2     
  19 C19           -9.0450    -5.6566    10.7704 C.3     
  20 C20           -9.0039    -3.7528     8.3242 C.3     
  21 C21           -6.8576    -8.1849     7.0263 C.3     
  22 C22          -10.1718    -6.6360    11.1049 C.3     
  23 C23           -7.9430    -5.7673    11.8260 C.3     
  24 C24           -1.2082    -0.9019     0.0083 C.3     
  25 C25            0.0021    -0.0041     0.0020 C.2     
  26 C26            1.2839    -0.4117    -0.0124 C.2     
  27 C27            1.2438     1.8038    -0.0001 C.2     
  28 C28            2.0843     0.7537    -0.0138 C.2     
  29 C29            1.6474     3.2558     0.0031 C.3     
  30 H30           -4.8100    -2.5914     5.0643 H       
  31 H31           -5.8213    -5.2552     3.9682 H       
  32 H32           -6.7587    -3.7454     4.0647 H       
  33 H33           -3.3825    -5.2535     4.6164 H       
  34 H34           -2.6387    -3.7517     5.2194 H       
  35 H35           -3.2189    -5.3176     7.0774 H       
  36 H36           -4.1209    -3.7866     7.1909 H       
  37 H37           -5.6216    -5.7177     7.5743 H       
  38 H38           -5.1656    -6.3923     5.9917 H       
  39 H39           -4.0346    -4.1389     2.5511 H       
  40 H40           -5.0949    -2.7094     2.5693 H       
  41 H41           -8.4240    -4.5814     5.7189 H       
  42 H42           -7.6731    -6.1281     5.2583 H       
  43 H43           -3.2728    -1.3708     3.5875 H       
  44 H44           -2.2125    -2.8003     3.5693 H       
  45 H45           -9.4381    -4.6400    10.7608 H       
  46 H46           -8.2149    -3.0543     8.6031 H       
  47 H47           -9.3434    -3.5322     7.3122 H       
  48 H48           -9.8391    -3.6533     9.0175 H       
  49 H49           -7.6117    -8.8038     6.5402 H       
  50 H50           -6.2186    -7.7293     6.2698 H       
  51 H51           -6.2520    -8.8032     7.6889 H       
  52 H52           -1.0742    -0.8294     2.1261 H       
  53 H53           -9.7786    -7.6526    11.1144 H       
  54 H54          -10.5826    -6.3961    12.0855 H       
  55 H55          -10.9568    -6.5572    10.3528 H       
  56 H56           -7.5498    -6.7839    11.8356 H       
  57 H57           -7.1402    -5.0695    11.5878 H       
  58 H58           -8.3538    -5.5273    12.8067 H       
  59 H59           -0.9747    -1.8302    -0.5131 H       
  60 H60           -2.0351    -0.4007    -0.4949 H       
  61 H61            1.6343    -1.4332    -0.0209 H       
  62 H62            3.1636     0.7932    -0.0236 H       
  63 H63            0.7546     3.8810     0.0148 H       
  64 H64            2.2484     3.4639     0.8883 H       
  65 H65            2.2311     3.4726    -0.8916 H       
@<TRIPOS>BOND
   1    1   18 2
   2    2   25 1
   3    2   27 1
   4    3    8 1
   5    3   11 1
   6    3   13 1
   7    4    5 1
   8    4   16 1
   9    4   19 1
  10    5   17 2
  11    6   18 am
  12    6   24 1
  13    6   52 1
  14    7    8 1
  15    7    9 1
  16    7   12 1
  17    7   30 1
  18    8   31 1
  19    8   32 1
  20    9   10 1
  21    9   33 1
  22    9   34 1
  23   10   11 1
  24   10   35 1
  25   10   36 1
  26   11   37 1
  27   11   38 1
  28   12   14 1
  29   12   39 1
  30   12   40 1
  31   13   15 1
  32   13   41 1
  33   13   42 1
  34   14   18 1
  35   14   43 1
  36   14   44 1
  37   15   16 2
  38   15   17 1
  39   16   20 1
  40   17   21 1
  41   19   22 1
  42   19   23 1
  43   19   45 1
  44   20   46 1
  45   20   47 1
  46   20   48 1
  47   21   49 1
  48   21   50 1
  49   21   51 1
  50   22   53 1
  51   22   54 1
  52   22   55 1
  53   23   56 1
  54   23   57 1
  55   23   58 1
  56   24   25 1
  57   24   59 1
  58   24   60 1
  59   25   26 2
  60   26   28 1
  61   26   61 1
  62   27   28 2
  63   27   29 1
  64   28   62 1
  65   29   63 1
  66   29   64 1
  67   29   65 1

#	End of record

#	Name: 16192294
#	Creating user name:	landrgr1
#	Creation time:	28. 01. 2015 13:52

#	Modifying user name:	landrgr1
#	Modification time:	28. 01. 2015 13:52

#	Program:	corina 3.48 0006  22.01.2010

@<TRIPOS>MOLECULE
16192294
  53   56    0    0    0
SMALL
NO_CHARGES


@<TRIPOS>ATOM
   1 O1            -2.0311     2.4785     6.4028 O.2     
   2 O2            -0.0164     1.3557     0.0095 O.3     
   3 O3            -5.6950     2.2966    10.0878 O.3     
   4 O4            -7.4253     1.1151     9.2255 O.3     
   5 O5            -0.0213    -0.0118    -2.3820 O.3     
   6 N6            -1.3412     0.4730     2.8270 N.3     
   7 C7            -2.8807     1.2951     4.5459 C.3     
   8 C8            -3.4307     2.3274     3.5578 C.3     
   9 C9            -1.4216     0.9908     4.1988 C.3     
  10 C10           -3.2908     1.7837     2.1332 C.3     
  11 C11           -1.8198     1.4653     1.8561 C.3     
  12 C12            0.0257     0.0402     2.5070 C.3     
  13 C13           -2.9603     1.8466     5.9461 C.2     
  14 C14            0.0229    -0.7046     1.1969 C.ar    
  15 C15           -4.1629     1.6191     6.7577 C.ar    
  16 C16            0.0021    -0.0041     0.0020 C.ar    
  17 C17           -4.2394     2.1305     8.0589 C.ar    
  18 C18            0.0470    -2.0872     1.1875 C.ar    
  19 C19           -5.2371     0.8905     6.2327 C.ar    
  20 C20           -5.3721     1.9144     8.8173 C.ar    
  21 C21           -0.0004    -0.6950    -1.2063 C.ar    
  22 C22           -6.3631     0.6792     6.9956 C.ar    
  23 C23           -6.4392     1.1865     8.2869 C.ar    
  24 C24            0.0445    -2.7733    -0.0123 C.ar    
  25 C25            0.0179    -2.0801    -1.2086 C.ar    
  26 C26           -7.1242     2.1490    10.1809 C.3     
  27 C27            1.2479     2.0217     0.0010 C.3     
  28 C28           -0.0226    -0.7866    -3.5827 C.3     
  29 H29           -3.4688     0.3796     4.4808 H       
  30 H30           -1.0313     0.2454     4.8918 H       
  31 H31           -0.8315     1.9039     4.2776 H       
  32 H32           -4.4823     2.5148     3.7745 H       
  33 H33           -2.8676     3.2561     3.6502 H       
  34 H34           -3.8854     0.8760     2.0301 H       
  35 H35           -3.6415     2.5318     1.4222 H       
  36 H36           -1.2279     2.3761     1.9458 H       
  37 H37           -1.7188     1.0645     0.8475 H       
  38 H38            0.6739     0.9128     2.4275 H       
  39 H39            0.3935    -0.6150     3.2966 H       
  40 H40           -3.4133     2.6929     8.4686 H       
  41 H41            0.0677    -2.6321     2.1197 H       
  42 H42           -5.1822     0.4946     5.2294 H       
  43 H43           -7.1907     0.1169     6.5889 H       
  44 H44            0.0637    -3.8531    -0.0155 H       
  45 H45            0.0161    -2.6187    -2.1448 H       
  46 H46           -7.4123     1.8381    11.1851 H       
  47 H47           -7.6236     3.0789     9.9089 H       
  48 H48            1.8173     1.7317     0.8840 H       
  49 H49            1.8003     1.7413    -0.8958 H       
  50 H50            1.0905     3.1003     0.0083 H       
  51 H51            0.8755    -1.4032    -3.6182 H       
  52 H52           -0.9042    -1.4275    -3.6006 H       
  53 H53           -0.0402    -0.1203    -4.4451 H       
@<TRIPOS>BOND
   1    1   13 2
   2    2   16 1
   3    2   27 1
   4    3   20 1
   5    3   26 1
   6    4   23 1
   7    4   26 1
   8    5   21 1
   9    5   28 1
  10    6    9 1
  11    6   11 1
  12    6   12 1
  13    7    8 1
  14    7    9 1
  15    7   13 1
  16    7   29 1
  17    8   10 1
  18    8   32 1
  19    8   33 1
  20    9   30 1
  21    9   31 1
  22   10   11 1
  23   10   34 1
  24   10   35 1
  25   11   36 1
  26   11   37 1
  27   12   14 1
  28   12   38 1
  29   12   39 1
  30   13   15 1
  31   14   16 ar
  32   14   18 ar
  33   15   17 ar
  34   15   19 ar
  35   16   21 ar
  36   17   20 ar
  37   17   40 1
  38   18   24 ar
  39   18   41 1
  40   19   22 ar
  41   19   42 1
  42   20   23 ar
  43   21   25 ar
  44   22   23 ar
  45   22   43 1
  46   24   25 ar
  47   24   44 1
  48   25   45 1
  49   26   46 1
  50   26   47 1
  51   27   48 1
  52   27   49 1
  53   27   50 1
  54   28   51 1
  55   28   52 1
  56   28   53 1

#	End of record

#	Name: 16192172
#	Creating user name:	landrgr1
#	Creation time:	28. 01. 2015 13:52

#	Modifying user name:	landrgr1
#	Modification time:	28. 01. 2015 13:52

#	Program:	corina 3.48 0006  22.01.2010

@<TRIPOS>MOLECULE
16192172
  61   63    0    0    0
SMALL
NO_CHARGES


@<TRIPOS>ATOM
   1 O1            -0.0161     1.3388     0.0094 O.3     
   2 O2            -6.9942    -3.9432     3.4535 O.2     
   3 O3             1.7618     3.7213    -1.3431 O.3     
   4 O4           -10.8728    -2.4772     9.4610 O.3     
   5 N5            -1.5884    -1.2016     1.3952 N.3     
   6 N6            -7.1092    -3.6963     5.6552 N.am    
   7 C7            -3.3225    -2.0387     2.9094 C.3     
   8 C8            -2.2707    -2.8642     3.6556 C.3     
   9 C9            -2.8930    -1.8735     1.4498 C.3     
  10 C10           -0.9120    -2.1673     3.5424 C.3     
  11 C11           -0.5523    -1.9984     2.0645 C.3     
  12 C12           -4.6715    -2.7584     2.9665 C.3     
  13 C13           -1.2082    -0.9019     0.0083 C.3     
  14 C14           -5.1572    -2.8171     4.4162 C.3     
  15 C15            0.0021    -0.0041     0.0020 C.2     
  16 C16           -6.4859    -3.5260     4.4725 C.2     
  17 C17            1.2839    -0.4117    -0.0124 C.2     
  18 C18            1.2438     1.8038    -0.0001 C.2     
  19 C19            2.0843     0.7537    -0.0138 C.2     
  20 C20           -8.4009    -4.3854     5.7100 C.3     
  21 C21            1.6474     3.2558     0.0031 C.3     
  22 C22           -8.8793    -4.4432     7.1378 C.ar    
  23 C23           -9.6622    -3.4245     7.6450 C.ar    
  24 C24           -8.5389    -5.5188     7.9376 C.ar    
  25 C25          -10.1028    -3.4785     8.9596 C.ar    
  26 C26           -8.9766    -5.5749     9.2477 C.ar    
  27 C27           -9.7556    -4.5559     9.7613 C.ar    
  28 C28            2.1423     5.0943    -1.4529 C.3     
  29 C29          -11.2901    -2.5993    10.8223 C.3     
  30 H30           -3.4129    -1.0575     3.3754 H       
  31 H31           -2.5509    -2.9476     4.7056 H       
  32 H32           -2.2078    -3.8588     3.2142 H       
  33 H33           -3.6327    -1.2742     0.9192 H       
  34 H34           -2.8162    -2.8544     0.9806 H       
  35 H35           -0.9644    -1.1881     4.0184 H       
  36 H36           -0.1507    -2.7719     4.0354 H       
  37 H37           -0.4865    -2.9787     1.5924 H       
  38 H38            0.4080    -1.4897     1.9803 H       
  39 H39           -5.3983    -2.2166     2.3614 H       
  40 H40           -4.5596    -3.7713     2.5796 H       
  41 H41           -0.9747    -1.8302    -0.5131 H       
  42 H42           -2.0351    -0.4007    -0.4949 H       
  43 H43           -4.4304    -3.3589     5.0213 H       
  44 H44           -5.2691    -1.8042     4.8031 H       
  45 H45            1.6343    -1.4332    -0.0209 H       
  46 H46           -6.7027    -3.3625     6.4702 H       
  47 H47            3.1636     0.7932    -0.0236 H       
  48 H48           -9.1277    -3.8436     5.1049 H       
  49 H49           -8.2890    -5.3983     5.3231 H       
  50 H50            2.6071     3.3650     0.5081 H       
  51 H51            0.8923     3.8416     0.5271 H       
  52 H52           -9.9309    -2.5865     7.0189 H       
  53 H53           -7.9304    -6.3164     7.5378 H       
  54 H54           -8.7094    -6.4160     9.8702 H       
  55 H55          -10.0973    -4.6002    10.7849 H       
  56 H56            3.1123     5.2417    -0.9781 H       
  57 H57            2.2073     5.3703    -2.5054 H       
  58 H58            1.3974     5.7183    -0.9591 H       
  59 H59          -11.8783    -3.5091    10.9418 H       
  60 H60          -10.4133    -2.6460    11.4682 H       
  61 H61          -11.8968    -1.7359    11.0952 H       
@<TRIPOS>BOND
   1    1   15 1
   2    1   18 1
   3    2   16 2
   4    3   21 1
   5    3   28 1
   6    4   25 1
   7    4   29 1
   8    5    9 1
   9    5   11 1
  10    5   13 1
  11    6   16 am
  12    6   20 1
  13    6   46 1
  14    7    8 1
  15    7    9 1
  16    7   12 1
  17    7   30 1
  18    8   10 1
  19    8   31 1
  20    8   32 1
  21    9   33 1
  22    9   34 1
  23   10   11 1
  24   10   35 1
  25   10   36 1
  26   11   37 1
  27   11   38 1
  28   12   14 1
  29   12   39 1
  30   12   40 1
  31   13   15 1
  32   13   41 1
  33   13   42 1
  34   14   16 1
  35   14   43 1
  36   14   44 1
  37   15   17 2
  38   17   19 1
  39   17   45 1
  40   18   19 2
  41   18   21 1
  42   19   47 1
  43   20   22 1
  44   20   48 1
  45   20   49 1
  46   21   50 1
  47   21   51 1
  48   22   23 ar
  49   22   24 ar
  50   23   25 ar
  51   23   52 1
  52   24   26 ar
  53   24   53 1
  54   25   27 ar
  55   26   27 ar
  56   26   54 1
  57   27   55 1
  58   28   56 1
  59   28   57 1
  60   28   58 1
  61   29   59 1
  62   29   60 1
  63   29   61 1

#	End of record

#	Name: 16192166
#	Creating user name:	landrgr1
#	Creation time:	28. 01. 2015 13:52

#	Modifying user name:	landrgr1
#	Modification time:	28. 01. 2015 13:52

#	Program:	corina 3.48 0006  22.01.2010

@<TRIPOS>MOLECULE
16192166
  54   58    0    0    0
SMALL
NO_CHARGES


@<TRIPOS>ATOM
   1 O1            -2.3330    -0.3819     0.9840 O.3     
   2 O2            -2.3973     0.4118     3.5858 O.2     
   3 O3            -2.3397    -1.9145    -1.3052 O.3     
   4 N4            -0.4127    -0.5785     3.5362 N.am    
   5 N5             2.1558     1.6395     1.9943 N.pl3   
   6 N6            -3.4506    -0.8819     5.6095 N.pl3   
   7 N7            -3.9170     0.4028     5.9325 N.2     
   8 N8            -5.5415    -0.9946     6.0844 N.2     
   9 C9             0.0371     0.2304     2.3904 C.3     
  10 C10            1.4447     0.6968     2.6880 C.2     
  11 C11            2.1893     0.2156     3.7067 C.2     
  12 C12            1.7300    -0.8341     4.6862 C.3     
  13 C13            0.5185    -1.5681     4.0990 C.3     
  14 C14            3.4663     0.8988     3.6566 C.ar    
  15 C15            0.0296    -0.6075     1.1379 C.ar    
  16 C16            3.3916     1.7895     2.5548 C.ar    
  17 C17           -1.6438    -0.4123     4.0590 C.2     
  18 C18            4.6181     0.8134     4.4441 C.ar    
  19 C19           -1.1655    -0.8747     0.4904 C.ar    
  20 C20            1.2164    -1.1051     0.6317 C.ar    
  21 C21            4.4715     2.6074     2.2300 C.ar    
  22 C22           -2.0840    -1.2505     5.2314 C.3     
  23 C23            5.6669     1.6306     4.1003 C.ar    
  24 C24            5.5987     2.5032     3.0270 C.ar    
  25 C25           -1.1689    -1.6491    -0.6662 C.ar    
  26 C26            1.2131    -1.8739    -0.5167 C.ar    
  27 C27            0.0228    -2.1492    -1.1648 C.ar    
  28 C28           -4.5058    -1.7071     5.7219 C.2     
  29 C29           -2.8048     0.8471     0.4283 C.3     
  30 C30           -2.2671    -2.7158    -2.4862 C.3     
  31 C31           -5.1893     0.2844     6.2081 C.2     
  32 H32           -0.6194     1.0914     2.2647 H       
  33 H33            2.5367    -1.5453     4.8636 H       
  34 H34            1.4482    -0.3582     5.6254 H       
  35 H35            0.0185    -2.1338     4.8851 H       
  36 H36            0.8489    -2.2467     3.3127 H       
  37 H37            1.8305     2.1270     1.2214 H       
  38 H38            4.6800     0.1369     5.2837 H       
  39 H39            2.1480    -0.8923     1.1350 H       
  40 H40            4.4310     3.2915     1.3953 H       
  41 H41           -1.4146    -1.0769     6.0739 H       
  42 H42           -2.0552    -2.3047     4.9556 H       
  43 H43            6.5733     1.5925     4.6863 H       
  44 H44            6.4547     3.1226     2.8032 H       
  45 H45            2.1421    -2.2604    -0.9091 H       
  46 H46            0.0229    -2.7503    -2.0620 H       
  47 H47           -4.4998    -2.7722     5.5436 H       
  48 H48           -3.6926     1.1737     0.9699 H       
  49 H49           -2.0275     1.6065     0.5133 H       
  50 H50           -3.0543     0.6987    -0.6224 H       
  51 H51           -1.6368    -2.2192    -3.2239 H       
  52 H52           -1.8409    -3.6882    -2.2398 H       
  53 H53           -3.2682    -2.8510    -2.8956 H       
  54 H54           -5.8468     1.0914     6.4960 H       
@<TRIPOS>BOND
   1    1   19 1
   2    1   29 1
   3    2   17 2
   4    3   25 1
   5    3   30 1
   6    4    9 1
   7    4   13 1
   8    4   17 am
   9    5   10 1
  10    5   16 1
  11    5   37 1
  12    6    7 1
  13    6   22 1
  14    6   28 1
  15    7   31 2
  16    8   28 2
  17    8   31 1
  18    9   10 1
  19    9   15 1
  20    9   32 1
  21   10   11 2
  22   11   12 1
  23   11   14 1
  24   12   13 1
  25   12   33 1
  26   12   34 1
  27   13   35 1
  28   13   36 1
  29   14   16 ar
  30   14   18 ar
  31   15   19 ar
  32   15   20 ar
  33   16   21 ar
  34   17   22 1
  35   18   23 ar
  36   18   38 1
  37   19   25 ar
  38   20   26 ar
  39   20   39 1
  40   21   24 ar
  41   21   40 1
  42   22   41 1
  43   22   42 1
  44   23   24 ar
  45   23   43 1
  46   24   44 1
  47   25   27 ar
  48   26   27 ar
  49   26   45 1
  50   27   46 1
  51   28   47 1
  52   29   48 1
  53   29   49 1
  54   29   50 1
  55   30   51 1
  56   30   52 1
  57   30   53 1
  58   31   54 1

#	End of record

#	Name: 16192116
#	Creating user name:	landrgr1
#	Creation time:	28. 01. 2015 13:52

#	Modifying user name:	landrgr1
#	Modification time:	28. 01. 2015 13:52

#	Program:	corina 3.48 0006  22.01.2010

@<TRIPOS>MOLECULE
16192116
  46   49    0    0    0
SMALL
NO_CHARGES


@<TRIPOS>ATOM
   1 S1            -0.0225     1.8097     0.0120 S.3     
   2 O2            -1.8696    -3.6636    -4.6796 O.3     
   3 N3            -1.0075    -2.2157    -1.8462 N.3     
   4 N4             0.2148    -3.9351    -4.3545 N.2     
   5 N5            -1.3680    -3.7979    -5.7758 N.2     
   6 C6             0.8889    -4.1720    -6.7976 C.3     
   7 C7             0.6744    -5.3841    -7.7063 C.3     
   8 C8             0.3660    -3.9771    -8.2221 C.3     
   9 C9            -0.0188     0.0260    -0.3179 C.3     
  10 C10           -1.4290    -0.5349    -0.1148 C.3     
  11 C11            0.4191    -0.2262    -1.7633 C.3     
  12 C12           -0.0848    -3.9703    -5.6652 C.2     
  13 C13           -1.4328    -2.0274    -0.4533 C.3     
  14 C14            0.3617    -1.7276    -2.0540 C.3     
  15 C15           -1.1315    -3.6231    -2.2487 C.3     
  16 C16           -0.9254    -3.7399    -3.7370 C.2     
  17 C17            1.6924     2.2143     0.0235 C.ar    
  18 C18            2.0946     3.5406     0.1289 C.ar    
  19 C19            2.6460     1.2077    -0.0669 C.ar    
  20 C20            3.4392     3.8538     0.1376 C.ar    
  21 C21            1.0642     4.6354     0.2330 C.3     
  22 C22            3.9892     1.5285    -0.0576 C.ar    
  23 C23            4.3856     2.8496     0.0416 C.ar    
  24 H24            1.9167    -3.8718    -6.5932 H       
  25 H25            1.5610    -5.8813    -8.0998 H       
  26 H26           -0.1711    -6.0356    -7.4851 H       
  27 H27           -0.6823    -3.7029    -8.3403 H       
  28 H28            1.0497    -3.5486    -8.9550 H       
  29 H29            0.6719    -0.4692     0.3646 H       
  30 H30           -1.7296    -0.3965     0.9237 H       
  31 H31           -2.1264    -0.0116    -0.7690 H       
  32 H32           -0.2493     0.3020    -2.4434 H       
  33 H33            1.4388     0.1328    -1.9025 H       
  34 H34           -2.4387    -2.4267    -0.3235 H       
  35 H35           -0.7455    -2.5520     0.2103 H       
  36 H36            1.0406    -2.2536    -1.3828 H       
  37 H37            0.6592    -1.9092    -3.0868 H       
  38 H38           -0.3789    -4.2170    -1.7300 H       
  39 H39           -2.1250    -3.9889    -1.9896 H       
  40 H40            2.3372     0.1757    -0.1440 H       
  41 H41            3.7524     4.8842     0.2190 H       
  42 H42            0.8287     4.8141     1.2821 H       
  43 H43            1.4588     5.5491    -0.2116 H       
  44 H44            0.1600     4.3349    -0.2963 H       
  45 H45            4.7310     0.7467    -0.1275 H       
  46 H46            5.4367     3.0976     0.0486 H       
@<TRIPOS>BOND
   1    1    9 1
   2    1   17 1
   3    2    5 1
   4    2   16 1
   5    3   13 1
   6    3   14 1
   7    3   15 1
   8    4   12 1
   9    4   16 2
  10    5   12 2
  11    6    7 1
  12    6    8 1
  13    6   12 1
  14    6   24 1
  15    7    8 1
  16    7   25 1
  17    7   26 1
  18    8   27 1
  19    8   28 1
  20    9   10 1
  21    9   11 1
  22    9   29 1
  23   10   13 1
  24   10   30 1
  25   10   31 1
  26   11   14 1
  27   11   32 1
  28   11   33 1
  29   13   34 1
  30   13   35 1
  31   14   36 1
  32   14   37 1
  33   15   16 1
  34   15   38 1
  35   15   39 1
  36   17   18 ar
  37   17   19 ar
  38   18   20 ar
  39   18   21 1
  40   19   22 ar
  41   19   40 1
  42   20   23 ar
  43   20   41 1
  44   21   42 1
  45   21   43 1
  46   21   44 1
  47   22   23 ar
  48   22   45 1
  49   23   46 1

#	End of record

#	Name: 16191983
#	Creating user name:	landrgr1
#	Creation time:	28. 01. 2015 13:52

#	Modifying user name:	landrgr1
#	Modification time:	28. 01. 2015 13:52

#	Program:	corina 3.48 0006  22.01.2010

@<TRIPOS>MOLECULE
16191983
  58   62    0    0    0
SMALL
NO_CHARGES


@<TRIPOS>ATOM
   1 O1            -3.2901    -2.4955     0.4123 O.2     
   2 O2            -0.0161     1.3394     0.0094 O.3     
   3 O3             2.8089     3.3018    -0.9601 O.3     
   4 N4            -3.3228    -2.5480     2.6300 N.am    
   5 N5             1.2501    -0.3774    -0.0119 N.2     
   6 N6             2.0071     0.6630    -0.0135 N.2     
   7 C7            -4.5190    -4.2318     3.9398 C.3     
   8 C8            -5.7660    -2.5910     2.5273 C.3     
   9 C9            -5.8734    -2.4306     5.0183 C.3     
  10 C10           -7.0140    -4.3139     3.8374 C.3     
  11 C11           -4.4919    -3.4310     2.6364 C.3     
  12 C12           -4.5993    -3.2706     5.1274 C.3     
  13 C13           -5.7399    -5.1539     3.9465 C.3     
  14 C14           -5.8463    -1.6297     3.7149 C.3     
  15 C15           -6.9869    -3.5130     2.5340 C.3     
  16 C16           -7.0943    -3.3526     5.0250 C.3     
  17 C17           -2.7962    -2.1356     1.4599 C.2     
  18 C18           -1.5937    -1.2274     1.4533 C.3     
  19 C19           -1.2005    -0.9123     0.0086 C.3     
  20 C20            0.0021    -0.0041     0.0020 C.2     
  21 C21            1.2677     1.7355    -0.0007 C.2     
  22 C22            1.7618     3.1593     0.0018 C.3     
  23 C23            2.2868     3.5064     1.3710 C.ar    
  24 C24            1.4657     4.1377     2.2865 C.ar    
  25 C25            3.5878     3.1884     1.7135 C.ar    
  26 C26            2.8946     4.6063    -1.5370 C.3     
  27 C27            1.9473     4.4562     3.5425 C.ar    
  28 C28            4.0694     3.5068     2.9695 C.ar    
  29 C29            3.2499     4.1429     3.8832 C.ar    
  30 H30           -3.6113    -4.8302     4.0174 H       
  31 H31           -5.7467    -2.0204     1.5988 H       
  32 H32           -5.9307    -1.7457     5.8644 H       
  33 H33           -7.8838    -4.9708     3.8422 H       
  34 H34           -4.4346    -4.1158     1.7903 H       
  35 H35           -4.6186    -3.8411     6.0559 H       
  36 H36           -3.7295    -2.6136     5.1226 H       
  37 H37           -5.6826    -5.8387     3.1004 H       
  38 H38           -5.7592    -5.7244     4.8750 H       
  39 H39           -4.9765    -0.9728     3.7102 H       
  40 H40           -6.7540    -1.0313     3.6373 H       
  41 H41           -7.8946    -2.9146     2.4563 H       
  42 H42           -6.9296    -4.1978     1.6879 H       
  43 H43           -7.1137    -3.9232     5.9536 H       
  44 H44           -8.0021    -2.7542     4.9473 H       
  45 H45           -2.9278    -2.2602     3.4678 H       
  46 H46           -1.8351    -0.3010     1.9744 H       
  47 H47           -0.7625    -1.7214     1.9565 H       
  48 H48           -0.9590    -1.8387    -0.5125 H       
  49 H49           -2.0316    -0.4183    -0.4947 H       
  50 H50            0.9406     3.8292    -0.2531 H       
  51 H51            0.4480     4.3825     2.0204 H       
  52 H52            4.2278     2.6909     0.9999 H       
  53 H53            1.9586     4.8420    -2.0433 H       
  54 H54            3.0775     5.3396    -0.7515 H       
  55 H55            3.7133     4.6325    -2.2562 H       
  56 H56            1.3060     4.9501     4.2575 H       
  57 H57            5.0857     3.2581     3.2372 H       
  58 H58            3.6263     4.3920     4.8643 H       
@<TRIPOS>BOND
   1    1   17 2
   2    2   20 1
   3    2   21 1
   4    3   22 1
   5    3   26 1
   6    4   11 1
   7    4   17 am
   8    4   45 1
   9    5    6 1
  10    5   20 2
  11    6   21 2
  12    7   11 1
  13    7   12 1
  14    7   13 1
  15    7   30 1
  16    8   11 1
  17    8   14 1
  18    8   15 1
  19    8   31 1
  20    9   12 1
  21    9   14 1
  22    9   16 1
  23    9   32 1
  24   10   13 1
  25   10   15 1
  26   10   16 1
  27   10   33 1
  28   11   34 1
  29   12   35 1
  30   12   36 1
  31   13   37 1
  32   13   38 1
  33   14   39 1
  34   14   40 1
  35   15   41 1
  36   15   42 1
  37   16   43 1
  38   16   44 1
  39   17   18 1
  40   18   19 1
  41   18   46 1
  42   18   47 1
  43   19   20 1
  44   19   48 1
  45   19   49 1
  46   21   22 1
  47   22   23 1
  48   22   50 1
  49   23   24 ar
  50   23   25 ar
  51   24   27 ar
  52   24   51 1
  53   25   28 ar
  54   25   52 1
  55   26   53 1
  56   26   54 1
  57   26   55 1
  58   27   29 ar
  59   27   56 1
  60   28   29 ar
  61   28   57 1
  62   29   58 1

#	End of record

#	Name: 16191968
#	Creating user name:	landrgr1
#	Creation time:	28. 01. 2015 13:52

#	Modifying user name:	landrgr1
#	Modification time:	28. 01. 2015 13:52

#	Program:	corina 3.48 0006  22.01.2010

@<TRIPOS>MOLECULE
16191968
  55   57    0    0    0
SMALL
NO_CHARGES


@<TRIPOS>ATOM
   1 S1             0.6878     0.9477    -1.6843 S.o2    
   2 O2            -3.9032     3.5958    -3.6234 O.3     
   3 O3             0.6151    -0.4641    -1.8291 O.2     
   4 O4             1.8910     1.6515    -1.9602 O.2     
   5 O5            -8.2895     6.4189     0.3834 O.2     
   6 O6            -5.3145     6.0727    -3.3087 O.2     
   7 N7            -0.3899     1.5285    -2.7995 N.am    
   8 N8            -7.3343     5.2836    -2.8278 N.am    
   9 N9            -8.6608     4.4850    -0.5733 N.am    
  10 C10           -2.6903     2.8552    -3.7734 C.3     
  11 C11           -1.5286     3.6534    -3.1772 C.3     
  12 C12           -2.8172     1.5087    -3.0489 C.3     
  13 C13           -0.2251     2.8722    -3.3706 C.3     
  14 C14           -1.5257     0.7076    -3.2411 C.3     
  15 C15           -7.6083     6.3508    -1.8540 C.3     
  16 C16           -8.3659     4.2472    -3.0020 C.3     
  17 C17           -4.8429     3.4407    -4.5894 C.ar    
  18 C18           -8.5900     7.3566    -2.4586 C.3     
  19 C19           -8.5500     3.5271    -1.6648 C.3     
  20 C20           -8.2104     5.7397    -0.6182 C.2     
  21 C21           -6.1880     5.2581    -3.5363 C.2     
  22 C22           -5.9932     4.2418    -4.5878 C.ar    
  23 C23            0.0035     1.4596    -0.0842 C.3     
  24 C24           -7.9336     8.0565    -3.6504 C.3     
  25 C25           -4.6672     2.4928    -5.5862 C.ar    
  26 C26           -6.9535     4.0726    -5.5877 C.ar    
  27 C27           -5.6245     2.3364    -6.5692 C.ar    
  28 C28           -6.7653     3.1217    -6.5675 C.ar    
  29 H29           -2.5025     2.6764    -4.8321 H       
  30 H30           -1.4556     4.6188    -3.6780 H       
  31 H31           -1.7018     3.8077    -2.1122 H       
  32 H32           -2.9792     1.6818    -1.9850 H       
  33 H33           -3.6598     0.9525    -3.4598 H       
  34 H34            0.5891     3.3881    -2.8617 H       
  35 H35           -0.0015     2.7921    -4.4344 H       
  36 H36           -1.4059     0.4547    -4.2945 H       
  37 H37           -1.5698    -0.2050    -2.6468 H       
  38 H38           -6.6783     6.8578    -1.5967 H       
  39 H39           -9.3056     4.7105    -3.3027 H       
  40 H40           -8.0467     3.5347    -3.7626 H       
  41 H41           -9.4861     6.8338    -2.7928 H       
  42 H42           -8.8607     8.0974    -1.7063 H       
  43 H43           -7.6930     2.8776    -1.4865 H       
  44 H44           -9.4558     2.9221    -1.7045 H       
  45 H45            0.6570     1.1152     0.7173 H       
  46 H46           -0.0698     2.5466    -0.0515 H       
  47 H47           -0.9878     1.0245     0.0429 H       
  48 H48           -9.0925     4.1898     0.2437 H       
  49 H49           -7.6629     7.3157    -4.4028 H       
  50 H50           -8.6330     8.7730    -4.0812 H       
  51 H51           -7.0375     8.5793    -3.3163 H       
  52 H52           -3.7804     1.8764    -5.5940 H       
  53 H53           -7.8425     4.6859    -5.5929 H       
  54 H54           -5.4829     1.5970    -7.3436 H       
  55 H55           -7.5086     2.9917    -7.3403 H       
@<TRIPOS>BOND
   1    1    3 2
   2    1    4 2
   3    1    7 am
   4    1   23 1
   5    2   10 1
   6    2   17 1
   7    5   20 2
   8    6   21 2
   9    7   13 1
  10    7   14 1
  11    8   15 1
  12    8   16 1
  13    8   21 am
  14    9   19 1
  15    9   20 am
  16    9   48 1
  17   10   11 1
  18   10   12 1
  19   10   29 1
  20   11   13 1
  21   11   30 1
  22   11   31 1
  23   12   14 1
  24   12   32 1
  25   12   33 1
  26   13   34 1
  27   13   35 1
  28   14   36 1
  29   14   37 1
  30   15   18 1
  31   15   20 1
  32   15   38 1
  33   16   19 1
  34   16   39 1
  35   16   40 1
  36   17   22 ar
  37   17   25 ar
  38   18   24 1
  39   18   41 1
  40   18   42 1
  41   19   43 1
  42   19   44 1
  43   21   22 1
  44   22   26 ar
  45   23   45 1
  46   23   46 1
  47   23   47 1
  48   24   49 1
  49   24   50 1
  50   24   51 1
  51   25   27 ar
  52   25   52 1
  53   26   28 ar
  54   26   53 1
  55   27   28 ar
  56   27   54 1
  57   28   55 1

#	End of record

#	Name: 16191955
#	Creating user name:	landrgr1
#	Creation time:	28. 01. 2015 13:52

#	Modifying user name:	landrgr1
#	Modification time:	28. 01. 2015 13:52

#	Program:	corina 3.48 0006  22.01.2010

@<TRIPOS>MOLECULE
16191955
  49   52    0    0    0
SMALL
NO_CHARGES


@<TRIPOS>ATOM
   1 S1             3.4581     1.6536    -7.5332 S.3     
   2 F2            -2.0453    -5.5160    -4.4121 F       
   3 N3             5.1028    -7.2321    -1.9992 N.pl3   
   4 N4             4.0106    -3.6666    -4.3715 N.3     
   5 N5             3.7665    -7.4605    -2.3517 N.2     
   6 N6             2.3247    -0.0387    -6.1329 N.2     
   7 C7             4.2274    -5.3170    -2.6012 C.2     
   8 C8             4.0552    -3.8532    -2.9151 C.3     
   9 C9             3.2359    -6.3116    -2.7145 C.2     
  10 C10            5.3598    -5.9079    -2.1615 C.2     
  11 C11            3.7196    -2.2682    -4.7144 C.3     
  12 C12            1.8377    -6.1008    -3.1641 C.ar    
  13 C13            3.6814    -2.1135    -6.2361 C.3     
  14 C14            6.0131    -8.1987    -1.5518 C.ar    
  15 C15            5.6155    -9.5231    -1.4251 C.ar    
  16 C16            7.3164    -7.8352    -1.2396 C.ar    
  17 C17            3.3828    -0.6789    -6.5879 C.2     
  18 C18            1.2452    -6.9996    -4.0490 C.ar    
  19 C19            1.1113    -5.0066    -2.6983 C.ar    
  20 C20            7.8109   -10.1075    -0.6687 C.ar    
  21 C21            6.5153   -10.4736    -0.9843 C.ar    
  22 C22            8.2116    -8.7904    -0.7992 C.ar    
  23 C23           -0.0554    -6.8000    -4.4642 C.ar    
  24 C24           -0.1888    -4.8147    -3.1187 C.ar    
  25 C25           -0.7722    -5.7079    -4.0026 C.ar    
  26 C26            4.1690     0.0480    -7.3876 C.2     
  27 C27            8.7900   -11.1471    -0.1876 C.3     
  28 C28            2.1744     1.1878    -6.5043 C.2     
  29 H29            4.8935    -3.2920    -2.5024 H       
  30 H30            3.1253    -3.4940    -2.4741 H       
  31 H31            6.3020    -5.4151    -1.9723 H       
  32 H32            2.7538    -1.9849    -4.2961 H       
  33 H33            4.4967    -1.6239    -4.3032 H       
  34 H34            4.8703    -3.9731    -4.8018 H       
  35 H35            4.6472    -2.3968    -6.6545 H       
  36 H36            2.9042    -2.7578    -6.6474 H       
  37 H37            4.6035    -9.8095    -1.6708 H       
  38 H38            7.6299    -6.8067    -1.3413 H       
  39 H39            1.8034    -7.8510    -4.4096 H       
  40 H40            1.5651    -4.3100    -2.0090 H       
  41 H41            6.2066   -11.5038    -0.8856 H       
  42 H42            9.2255    -8.5084    -0.5566 H       
  43 H43           -0.5152    -7.4960    -5.1503 H       
  44 H44           -0.7526    -3.9672    -2.7579 H       
  45 H45            5.0793    -0.2891    -7.8610 H       
  46 H46            9.3130   -11.5767    -1.0420 H       
  47 H47            9.5119   -10.6830     0.4844 H       
  48 H48            8.2534   -11.9337     0.3429 H       
  49 H49            1.3563     1.8276    -6.2081 H       
@<TRIPOS>BOND
   1    1   26 1
   2    1   28 1
   3    2   25 1
   4    3    5 1
   5    3   10 1
   6    3   14 1
   7    4    8 1
   8    4   11 1
   9    4   34 1
  10    5    9 2
  11    6   17 1
  12    6   28 2
  13    7    8 1
  14    7    9 1
  15    7   10 2
  16    8   29 1
  17    8   30 1
  18    9   12 1
  19   10   31 1
  20   11   13 1
  21   11   32 1
  22   11   33 1
  23   12   18 ar
  24   12   19 ar
  25   13   17 1
  26   13   35 1
  27   13   36 1
  28   14   15 ar
  29   14   16 ar
  30   15   21 ar
  31   15   37 1
  32   16   22 ar
  33   16   38 1
  34   17   26 2
  35   18   23 ar
  36   18   39 1
  37   19   24 ar
  38   19   40 1
  39   20   21 ar
  40   20   22 ar
  41   20   27 1
  42   21   41 1
  43   22   42 1
  44   23   25 ar
  45   23   43 1
  46   24   25 ar
  47   24   44 1
  48   26   45 1
  49   27   46 1
  50   27   47 1
  51   27   48 1
  52   28   49 1

#	End of record

#	Name: 16191895
#	Creating user name:	landrgr1
#	Creation time:	28. 01. 2015 13:52

#	Modifying user name:	landrgr1
#	Modification time:	28. 01. 2015 13:52

#	Program:	corina 3.48 0006  22.01.2010

@<TRIPOS>MOLECULE
16191895
  54   56    0    0    0
SMALL
NO_CHARGES


@<TRIPOS>ATOM
   1 Cl1            4.6429    -2.0062     5.9630 Cl      
   2 F2             1.7021    -2.2147     6.0414 F       
   3 O3            -1.5230     1.9617    -0.9599 O.2     
   4 O4            -1.7743     0.7315     2.1387 O.2     
   5 N5             0.4980    -0.0254     1.1611 N.3     
   6 N6             0.1252     2.5899     0.3444 N.am    
   7 N7            -3.5885    -0.4788     1.7317 N.am    
   8 N8            -7.6471    -0.7059     4.4514 N.pl3   
   9 N9            -9.2251    -2.1011     4.9203 N.2     
  10 C10           -0.3443     0.1688    -0.0266 C.3     
  11 C11            1.6791     0.8503     1.0946 C.3     
  12 C12           -1.6736    -0.5633     0.1682 C.3     
  13 C13            1.2246     2.3016     1.2610 C.3     
  14 C14            0.8936    -1.4332     1.3014 C.3     
  15 C15           -0.6075     1.6334    -0.2354 C.2     
  16 C16           -2.3479    -0.0565     1.4170 C.2     
  17 C17            1.8327    -1.5769     2.4712 C.ar    
  18 C18           -4.2440     0.0139     2.9457 C.3     
  19 C19           -5.6327    -0.6167     3.0672 C.3     
  20 C20           -6.3173    -0.1022     4.3350 C.3     
  21 C21            1.3301    -1.8326     3.7328 C.ar    
  22 C22            3.1970    -1.4584     2.2804 C.ar    
  23 C23            2.1926    -1.9651     4.8076 C.ar    
  24 C24            4.0600    -1.5904     3.3520 C.ar    
  25 C25           -7.9369    -1.9068     4.9968 C.2     
  26 C26            3.5593    -1.8411     4.6168 C.ar    
  27 C27           -8.8284    -0.1555     4.0329 C.2     
  28 C28           -9.7983    -1.0406     4.3322 C.2     
  29 C29           -6.9382    -2.8644     5.5939 C.3     
  30 H30            0.1657    -0.2339    -0.9017 H       
  31 H31            2.3724     0.5904     1.8945 H       
  32 H32            2.1699     0.7294     0.1288 H       
  33 H33           -2.3180    -0.3815    -0.6920 H       
  34 H34           -1.4885    -1.6332     0.2638 H       
  35 H35            2.0591     2.9691     1.0461 H       
  36 H36            0.8915     2.4605     2.2866 H       
  37 H37            0.0071    -2.0447     1.4699 H       
  38 H38            1.3944    -1.7623     0.3909 H       
  39 H39           -0.0829     3.5166     0.1474 H       
  40 H40           -3.6456    -0.2547     3.8163 H       
  41 H41           -4.3408     1.0982     2.8918 H       
  42 H42           -4.0473    -1.1090     1.1544 H       
  43 H43           -6.2311    -0.3481     2.1966 H       
  44 H44           -5.5360    -1.7011     3.1210 H       
  45 H45           -6.4141     0.9822     4.2812 H       
  46 H46           -5.7190    -0.3707     5.2056 H       
  47 H47            0.2645    -1.9287     3.8804 H       
  48 H48            3.5887    -1.2630     1.2931 H       
  49 H49            5.1255    -1.4980     3.2016 H       
  50 H50           -8.9579     0.8041     3.5546 H       
  51 H51          -10.8527    -0.9183     4.1330 H       
  52 H52           -6.8185    -2.6492     6.6557 H       
  53 H53           -7.2950    -3.8867     5.4684 H       
  54 H54           -5.9787    -2.7499     5.0896 H       
@<TRIPOS>BOND
   1    1   26 1
   2    2   23 1
   3    3   15 2
   4    4   16 2
   5    5   10 1
   6    5   11 1
   7    5   14 1
   8    6   13 1
   9    6   15 am
  10    6   39 1
  11    7   16 am
  12    7   18 1
  13    7   42 1
  14    8   20 1
  15    8   25 1
  16    8   27 1
  17    9   25 2
  18    9   28 1
  19   10   12 1
  20   10   15 1
  21   10   30 1
  22   11   13 1
  23   11   31 1
  24   11   32 1
  25   12   16 1
  26   12   33 1
  27   12   34 1
  28   13   35 1
  29   13   36 1
  30   14   17 1
  31   14   37 1
  32   14   38 1
  33   17   21 ar
  34   17   22 ar
  35   18   19 1
  36   18   40 1
  37   18   41 1
  38   19   20 1
  39   19   43 1
  40   19   44 1
  41   20   45 1
  42   20   46 1
  43   21   23 ar
  44   21   47 1
  45   22   24 ar
  46   22   48 1
  47   23   26 ar
  48   24   26 ar
  49   24   49 1
  50   25   29 1
  51   27   28 2
  52   27   50 1
  53   28   51 1
  54   29   52 1
  55   29   53 1
  56   29   54 1

#	End of record

#	Name: 16191784
#	Creating user name:	landrgr1
#	Creation time:	28. 01. 2015 13:52

#	Modifying user name:	landrgr1
#	Modification time:	28. 01. 2015 13:52

#	Program:	corina 3.48 0006  22.01.2010

@<TRIPOS>MOLECULE
16191784
  56   59    0    0    0
SMALL
NO_CHARGES


@<TRIPOS>ATOM
   1 F1            -2.3729    -0.0519     0.0244 F       
   2 O2            -0.9793    -4.8670    -0.0162 O.2     
   3 O3            -0.0163     1.3529     0.0095 O.3     
   4 N4             2.4705    -7.0967     0.5295 N.3     
   5 N5             4.9819   -10.6803     0.1309 N.pl3   
   6 N6             5.6722    -9.9492     1.1062 N.2     
   7 C7             1.3781    -4.9791    -0.0388 C.3     
   8 C8             1.1931    -6.3733     0.5646 C.3     
   9 C9             1.8699    -5.1143    -1.4826 C.3     
  10 C10            3.1762    -5.9130    -1.4957 C.3     
  11 C11            2.9391    -7.2801    -0.8501 C.3     
  12 C12            2.3646    -8.3861     1.2254 C.3     
  13 C13            0.0620    -4.2450    -0.0223 C.2     
  14 C14            3.6037    -9.2023     0.9619 C.2     
  15 C15            0.0404    -2.7766    -0.0137 C.ar    
  16 C16            4.8458    -9.0572     1.6099 C.2     
  17 C17            3.7203   -10.2037     0.0628 C.2     
  18 C18           -1.1813    -2.0922     0.0016 C.ar    
  19 C19            1.2412    -2.0564    -0.0150 C.ar    
  20 C20            5.1662    -8.0724     2.6731 C.ar    
  21 C21            5.5346   -11.7688    -0.6790 C.3     
  22 C22           -1.1956    -0.7144     0.0096 C.ar    
  23 C23            1.2165    -0.6804    -0.0074 C.ar    
  24 C24            0.0021    -0.0041     0.0020 C.ar    
  25 C25            6.0412    -8.4142     3.7020 C.ar    
  26 C26            4.5975    -6.8009     2.6426 C.ar    
  27 C27            6.3356    -7.4945     4.6882 C.ar    
  28 C28            4.8989    -5.8889     3.6339 C.ar    
  29 C29            5.7634    -6.2356     4.6564 C.ar    
  30 C30            1.2479     2.0189     0.0010 C.3     
  31 H31            2.1123    -4.4242     0.5453 H       
  32 H32            0.4486    -6.9226    -0.0118 H       
  33 H33            0.8566    -6.2803     1.5972 H       
  34 H34            1.1185    -5.6351    -2.0761 H       
  35 H35            2.0445    -4.1236    -1.9022 H       
  36 H36            3.5091    -6.0494    -2.5247 H       
  37 H37            3.9387    -5.3729    -0.9345 H       
  38 H38            3.8707    -7.8459    -0.8450 H       
  39 H39            2.1865    -7.8252    -1.4198 H       
  40 H40            2.2643    -8.2134     2.2969 H       
  41 H41            1.4901    -8.9250     0.8607 H       
  42 H42            2.9414   -10.5604    -0.5949 H       
  43 H43           -2.1102    -2.6431     0.0068 H       
  44 H44            2.1857    -2.5801    -0.0220 H       
  45 H45            5.3810   -12.7179    -0.1655 H       
  46 H46            5.0322   -11.7933    -1.6460 H       
  47 H47            6.6019   -11.6049    -0.8281 H       
  48 H48            2.1427    -0.1249    -0.0088 H       
  49 H49            6.4879    -9.3971     3.7281 H       
  50 H50            3.9224    -6.5291     1.8446 H       
  51 H51            7.0137    -7.7584     5.4862 H       
  52 H52            4.4589    -4.9029     3.6110 H       
  53 H53            5.9963    -5.5191     5.4303 H       
  54 H54            1.0905     3.0975     0.0083 H       
  55 H55            1.8173     1.7289     0.8840 H       
  56 H56            1.8004     1.7385    -0.8958 H       
@<TRIPOS>BOND
   1    1   22 1
   2    2   13 2
   3    3   24 1
   4    3   30 1
   5    4    8 1
   6    4   11 1
   7    4   12 1
   8    5    6 1
   9    5   17 1
  10    5   21 1
  11    6   16 2
  12    7    8 1
  13    7    9 1
  14    7   13 1
  15    7   31 1
  16    8   32 1
  17    8   33 1
  18    9   10 1
  19    9   34 1
  20    9   35 1
  21   10   11 1
  22   10   36 1
  23   10   37 1
  24   11   38 1
  25   11   39 1
  26   12   14 1
  27   12   40 1
  28   12   41 1
  29   13   15 1
  30   14   16 1
  31   14   17 2
  32   15   18 ar
  33   15   19 ar
  34   16   20 1
  35   17   42 1
  36   18   22 ar
  37   18   43 1
  38   19   23 ar
  39   19   44 1
  40   20   25 ar
  41   20   26 ar
  42   21   45 1
  43   21   46 1
  44   21   47 1
  45   22   24 ar
  46   23   24 ar
  47   23   48 1
  48   25   27 ar
  49   25   49 1
  50   26   28 ar
  51   26   50 1
  52   27   29 ar
  53   27   51 1
  54   28   29 ar
  55   28   52 1
  56   29   53 1
  57   30   54 1
  58   30   55 1
  59   30   56 1

#	End of record

#	Name: 16191777
#	Creating user name:	landrgr1
#	Creation time:	28. 01. 2015 13:52

#	Modifying user name:	landrgr1
#	Modification time:	28. 01. 2015 13:52

#	Program:	corina 3.48 0006  22.01.2010

@<TRIPOS>MOLECULE
16191777
  53   57    0    0    0
SMALL
NO_CHARGES


@<TRIPOS>ATOM
   1 F1             2.6598    -3.9148    -2.2522 F       
   2 O2             1.6105    -0.7284    -0.0792 O.2     
   3 O3             4.8050    -3.7741     0.0270 O.3     
   4 O4            -0.3412    -6.3030    -5.0490 O.3     
   5 N5             0.7898    -2.7880     0.0416 N.am    
   6 N6             0.1956    -6.1531     1.5306 N.pl3   
   7 N7             3.6003    -3.6802    -0.0148 N.2     
   8 C8             1.0213    -4.2424     0.0145 C.3     
   9 C9             0.1396    -4.8628     1.0751 C.2     
  10 C10           -0.8425    -4.1910     1.7141 C.2     
  11 C11           -1.1918    -2.7446     1.4733 C.3     
  12 C12           -0.5963    -2.3045     0.1306 C.3     
  13 C13           -1.4570    -5.1205     2.6406 C.ar    
  14 C14           -0.7615    -6.3473     2.4846 C.ar    
  15 C15            0.6574    -4.7935    -1.3401 C.ar    
  16 C16            1.8219    -1.9227    -0.0083 C.2     
  17 C17           -2.5084    -4.9930     3.5530 C.ar    
  18 C18           -1.1113    -7.4618     3.2436 C.ar    
  19 C19            1.5064    -4.5988    -2.4166 C.ar    
  20 C20           -0.5209    -5.4976    -1.5052 C.ar    
  21 C21            3.2160    -2.4285     0.0233 C.2     
  22 C22           -2.8318    -6.1080     4.2868 C.ar    
  23 C23           -2.1551    -7.3074     4.1399 C.ar    
  24 C24            1.1732    -5.1044    -3.6610 C.ar    
  25 C25           -0.8569    -6.0038    -2.7457 C.ar    
  26 C26           -0.0113    -5.8058    -3.8281 C.ar    
  27 C27            4.4057    -1.6522     0.1012 C.2     
  28 C28            5.3965    -2.5737     0.1000 C.2     
  29 C29            6.8774    -2.3029     0.1681 C.3     
  30 C30            7.3235    -2.2723     1.6313 C.3     
  31 C31           -1.5763    -7.0149    -5.1475 C.3     
  32 H32            2.0679    -4.4548     0.2325 H       
  33 H33           -2.2755    -2.6307     1.4466 H       
  34 H34           -0.7787    -2.1314     2.2742 H       
  35 H35           -0.6081    -1.2165     0.0653 H       
  36 H36           -1.1832    -2.7270    -0.6849 H       
  37 H37            0.8209    -6.8273     1.2220 H       
  38 H38           -3.0411    -4.0615     3.6753 H       
  39 H39           -0.5918    -8.4028     3.1380 H       
  40 H40           -1.1792    -5.6523    -0.6631 H       
  41 H41           -3.6387    -6.0472     5.0021 H       
  42 H42           -2.4528    -8.1515     4.7443 H       
  43 H43            1.8347    -4.9526    -4.5011 H       
  44 H44           -1.7779    -6.5533    -2.8733 H       
  45 H45            4.4968    -0.5771     0.1494 H       
  46 H46            7.4154    -3.0906    -0.3594 H       
  47 H47            7.0927    -1.3412    -0.2976 H       
  48 H48            8.3946    -2.0764     1.6805 H       
  49 H49            6.7855    -1.4846     2.1588 H       
  50 H50            7.1082    -3.2340     2.0970 H       
  51 H51           -1.7177    -7.3570    -6.1728 H       
  52 H52           -1.5548    -7.8743    -4.4774 H       
  53 H53           -2.3986    -6.3563    -4.8676 H       
@<TRIPOS>BOND
   1    1   19 1
   2    2   16 2
   3    3    7 1
   4    3   28 1
   5    4   26 1
   6    4   31 1
   7    5    8 1
   8    5   12 1
   9    5   16 am
  10    6    9 1
  11    6   14 1
  12    6   37 1
  13    7   21 2
  14    8    9 1
  15    8   15 1
  16    8   32 1
  17    9   10 2
  18   10   11 1
  19   10   13 1
  20   11   12 1
  21   11   33 1
  22   11   34 1
  23   12   35 1
  24   12   36 1
  25   13   14 ar
  26   13   17 ar
  27   14   18 ar
  28   15   19 ar
  29   15   20 ar
  30   16   21 1
  31   17   22 ar
  32   17   38 1
  33   18   23 ar
  34   18   39 1
  35   19   24 ar
  36   20   25 ar
  37   20   40 1
  38   21   27 1
  39   22   23 ar
  40   22   41 1
  41   23   42 1
  42   24   26 ar
  43   24   43 1
  44   25   26 ar
  45   25   44 1
  46   27   28 2
  47   27   45 1
  48   28   29 1
  49   29   30 1
  50   29   46 1
  51   29   47 1
  52   30   48 1
  53   30   49 1
  54   30   50 1
  55   31   51 1
  56   31   52 1
  57   31   53 1

#	End of record

#	Name: 16191740
#	Creating user name:	landrgr1
#	Creation time:	28. 01. 2015 13:52

#	Modifying user name:	landrgr1
#	Modification time:	28. 01. 2015 13:52

#	Program:	corina 3.48 0006  22.01.2010

@<TRIPOS>MOLECULE
16191740
  45   48    0    0    0
SMALL
NO_CHARGES


@<TRIPOS>ATOM
   1 F1            -3.0446     7.6452    -1.0080 F       
   2 F2            -0.4916    -2.8701     1.4983 F       
   3 O3            -0.0144     1.2088     0.0087 O.3     
   4 N4             1.7721     3.6056    -1.3812 N.3     
   5 N5             2.0346     0.6384    -0.0139 N.2     
   6 N6             0.0021    -0.0041     0.0020 N.2     
   7 C7             1.9430     5.0808    -1.4219 C.3     
   8 C8             2.5796     5.3607    -2.8002 C.3     
   9 C9             3.2780     4.0429    -3.1942 C.3     
  10 C10            3.0045     3.0776    -2.0209 C.3     
  11 C11            0.6064     5.7680    -1.3110 C.ar    
  12 C12            1.6510     3.1277     0.0027 C.3     
  13 C13            1.2366     1.6788    -0.0007 C.2     
  14 C14            0.4795     6.9123    -0.5457 C.ar    
  15 C15           -0.4906     5.2569    -1.9792 C.ar    
  16 C16           -0.7457     7.5434    -0.4432 C.ar    
  17 C17           -1.7167     5.8865    -1.8786 C.ar    
  18 C18           -1.8462     7.0294    -1.1078 C.ar    
  19 C19            1.2271    -0.4372    -0.0120 C.2     
  20 C20            1.6630    -1.8798    -0.0239 C.3     
  21 C21            1.8219    -2.3682     1.3928 C.ar    
  22 C22            0.7233    -2.8442     2.0887 C.ar    
  23 C23            3.0648    -2.3467     1.9961 C.ar    
  24 C24            0.8708    -3.2931     3.3900 C.ar    
  25 C25            3.2110    -2.7952     3.2958 C.ar    
  26 C26            2.1142    -3.2657     3.9931 C.ar    
  27 H27            2.6076     5.4087    -0.6226 H       
  28 H28            1.8093     5.6135    -3.5287 H       
  29 H29            3.3087     6.1674    -2.7236 H       
  30 H30            2.8504     3.6488    -4.1162 H       
  31 H31            4.3498     4.2027    -3.3111 H       
  32 H32            3.8352     3.0920    -1.3153 H       
  33 H33            2.8371     2.0664    -2.3917 H       
  34 H34            2.6116     3.2297     0.5076 H       
  35 H35            0.9004     3.7191     0.5269 H       
  36 H36            1.3381     7.3130    -0.0274 H       
  37 H37           -0.3893     4.3654    -2.5804 H       
  38 H38           -0.8447     8.4369     0.1553 H       
  39 H39           -2.5736     5.4869    -2.4005 H       
  40 H40            0.9113    -2.4823    -0.5338 H       
  41 H41            2.6151    -1.9673    -0.5473 H       
  42 H42            3.9226    -1.9797     1.4520 H       
  43 H43            0.0147    -3.6641     3.9338 H       
  44 H44            4.1829    -2.7783     3.7663 H       
  45 H45            2.2295    -3.6154     5.0084 H       
@<TRIPOS>BOND
   1    1   18 1
   2    2   22 1
   3    3    6 1
   4    3   13 1
   5    4    7 1
   6    4   10 1
   7    4   12 1
   8    5   13 2
   9    5   19 1
  10    6   19 2
  11    7    8 1
  12    7   11 1
  13    7   27 1
  14    8    9 1
  15    8   28 1
  16    8   29 1
  17    9   10 1
  18    9   30 1
  19    9   31 1
  20   10   32 1
  21   10   33 1
  22   11   14 ar
  23   11   15 ar
  24   12   13 1
  25   12   34 1
  26   12   35 1
  27   14   16 ar
  28   14   36 1
  29   15   17 ar
  30   15   37 1
  31   16   18 ar
  32   16   38 1
  33   17   18 ar
  34   17   39 1
  35   19   20 1
  36   20   21 1
  37   20   40 1
  38   20   41 1
  39   21   22 ar
  40   21   23 ar
  41   22   24 ar
  42   23   25 ar
  43   23   42 1
  44   24   26 ar
  45   24   43 1
  46   25   26 ar
  47   25   44 1
  48   26   45 1

#	End of record

#	Name: 16191726
#	Creating user name:	landrgr1
#	Creation time:	28. 01. 2015 13:52

#	Modifying user name:	landrgr1
#	Modification time:	28. 01. 2015 13:52

#	Program:	corina 3.48 0006  22.01.2010

@<TRIPOS>MOLECULE
16191726
  48   50    0    0    0
SMALL
NO_CHARGES


@<TRIPOS>ATOM
   1 S1            -0.0198     1.7541    -0.1157 S.3     
   2 F2            -7.1567    -9.6442     3.3010 F       
   3 F3            -6.2983   -11.8136     1.8662 F       
   4 O4            -1.1355    -1.8514     0.7463 O.2     
   5 O5            -7.0979    -4.4820    -1.8461 O.2     
   6 N6            -2.2847    -0.6205    -0.7033 N.am    
   7 N7            -6.0796    -6.1284    -0.7624 N.am    
   8 N8             2.1501     0.5753    -0.3190 N.2     
   9 C9            -3.8178    -1.9159    -2.0911 C.3     
  10 C10           -4.0550    -0.6444    -2.9091 C.3     
  11 C11           -3.4359    -1.5324    -0.6580 C.3     
  12 C12           -2.7672     0.1812    -2.9569 C.3     
  13 C13           -5.0961    -2.7563    -2.0714 C.3     
  14 C14           -2.3734     0.5884    -1.5336 C.3     
  15 C15           -4.8231    -4.0833    -1.3605 C.3     
  16 C16           -1.1708    -0.8850     0.0078 C.2     
  17 C17           -6.0822    -4.9111    -1.3411 C.2     
  18 C18           -0.0008    -0.0079    -0.1087 C.2     
  19 C19           -7.3036    -6.9331    -0.7436 C.3     
  20 C20            1.2897    -0.4078    -0.2311 C.2     
  21 C21           -7.0347    -8.2402    -0.0433 C.ar    
  22 C22            1.6816     1.7812    -0.2799 C.2     
  23 C23           -7.2215    -8.3430     1.3222 C.ar    
  24 C24           -6.6068    -9.3368    -0.7685 C.ar    
  25 C25           -6.9747    -9.5431     1.9661 C.ar    
  26 C26           -6.3595   -10.5366    -0.1285 C.ar    
  27 C27           -6.5402   -10.6412     1.2398 C.ar    
  28 H28           -3.0096    -2.4925    -2.5411 H       
  29 H29           -4.3509    -0.9147    -3.9228 H       
  30 H30           -4.8464    -0.0561    -2.4447 H       
  31 H31           -3.1698    -2.4291    -0.0983 H       
  32 H32           -4.2775    -1.0347    -0.1762 H       
  33 H33           -1.9690    -0.4152    -3.3987 H       
  34 H34           -2.9302     1.0750    -3.5591 H       
  35 H35           -5.8791    -2.2144    -1.5410 H       
  36 H36           -5.4183    -2.9517    -3.0942 H       
  37 H37           -3.1284     1.2590    -1.1233 H       
  38 H38           -1.4063     1.0910    -1.5517 H       
  39 H39           -4.0401    -4.6253    -1.8908 H       
  40 H40           -4.5009    -3.8880    -0.3377 H       
  41 H41           -5.2672    -6.4716    -0.3585 H       
  42 H42           -8.0866    -6.3912    -0.2132 H       
  43 H43           -7.6258    -7.1285    -1.7664 H       
  44 H44            1.5821    -1.4472    -0.2547 H       
  45 H45            2.2807     2.6777    -0.3421 H       
  46 H46           -7.5597    -7.4867     1.8870 H       
  47 H47           -6.4660    -9.2559    -1.8362 H       
  48 H48           -6.0257   -11.3927    -0.6961 H       
@<TRIPOS>BOND
   1    1   18 1
   2    1   22 1
   3    2   25 1
   4    3   27 1
   5    4   16 2
   6    5   17 2
   7    6   11 1
   8    6   14 1
   9    6   16 am
  10    7   17 am
  11    7   19 1
  12    7   41 1
  13    8   20 1
  14    8   22 2
  15    9   10 1
  16    9   11 1
  17    9   13 1
  18    9   28 1
  19   10   12 1
  20   10   29 1
  21   10   30 1
  22   11   31 1
  23   11   32 1
  24   12   14 1
  25   12   33 1
  26   12   34 1
  27   13   15 1
  28   13   35 1
  29   13   36 1
  30   14   37 1
  31   14   38 1
  32   15   17 1
  33   15   39 1
  34   15   40 1
  35   16   18 1
  36   18   20 2
  37   19   21 1
  38   19   42 1
  39   19   43 1
  40   20   44 1
  41   21   23 ar
  42   21   24 ar
  43   22   45 1
  44   23   25 ar
  45   23   46 1
  46   24   26 ar
  47   24   47 1
  48   25   27 ar
  49   26   27 ar
  50   26   48 1

#	End of record

#	Name: 16191717
#	Creating user name:	landrgr1
#	Creation time:	28. 01. 2015 13:52

#	Modifying user name:	landrgr1
#	Modification time:	28. 01. 2015 13:52

#	Program:	corina 3.48 0006  22.01.2010

@<TRIPOS>MOLECULE
16191717
  52   54    0    0    0
SMALL
NO_CHARGES


@<TRIPOS>ATOM
   1 O1            -1.8705     1.3981    -1.3250 O.3     
   2 O2            -3.7081    -7.9625     2.4948 O.3     
   3 N3            -0.7509    -2.5773     1.2410 N.3     
   4 N4            -2.8446    -4.0438    -0.0125 N.3     
   5 N5            -3.8213    -6.8420     2.0398 N.2     
   6 N6            -3.7646    -8.8758     1.6960 N.2     
   7 C7            -1.3883    -2.0760     0.0154 C.3     
   8 C8            -2.8341    -2.5746    -0.0451 C.3     
   9 C9            -0.7614    -4.0464     1.2736 C.3     
  10 C10           -2.2071    -4.5450     1.2131 C.3     
  11 C11            0.6167    -2.0575     1.3736 C.3     
  12 C12           -1.3759    -0.5460     0.0227 C.3     
  13 C13            1.1137    -2.2881     2.8021 C.3     
  14 C14           -4.2121    -4.5635    -0.1451 C.3     
  15 C15            2.5380    -1.7468     2.9402 C.3     
  16 C16           -1.9929    -0.0248    -1.2767 C.3     
  17 C17           -4.1645    -6.0552    -0.3540 C.ar    
  18 C18            2.9890    -1.8638     4.3975 C.3     
  19 C19            3.4804    -2.5573     2.0480 C.3     
  20 C20           -3.9824    -6.9209     0.7420 C.ar    
  21 C21           -4.2971    -6.5764    -1.5988 C.ar    
  22 C22           -3.9416    -8.3839     0.4947 C.ar    
  23 C23           -4.2592    -7.9569    -1.8321 C.ar    
  24 C24           -4.0870    -8.8501    -0.8264 C.ar    
  25 H25           -0.8413    -2.4403    -0.8541 H       
  26 H26           -3.2999    -2.2280    -0.9675 H       
  27 H27           -3.3882    -2.1879     0.8102 H       
  28 H28           -0.2073    -4.4331     0.4183 H       
  29 H29           -0.2955    -4.3930     2.1961 H       
  30 H30           -2.7542    -4.1807     2.0826 H       
  31 H31           -2.2160    -5.6350     1.2079 H       
  32 H32            1.2717    -2.5754     0.6730 H       
  33 H33            0.6223    -0.9897     1.1549 H       
  34 H34           -1.9549    -0.1820     0.8714 H       
  35 H35           -0.3485    -0.1914     0.1049 H       
  36 H36            0.4586    -1.7702     3.5027 H       
  37 H37            1.1080    -3.3559     3.0209 H       
  38 H38           -4.7747    -4.3414     0.7617 H       
  39 H39           -4.6987    -4.0924    -0.9991 H       
  40 H40            2.5601    -0.7003     2.6360 H       
  41 H41           -3.0469    -0.3004    -1.3146 H       
  42 H42           -1.4719    -0.4634    -2.1278 H       
  43 H43            2.9670    -2.9103     4.7018 H       
  44 H44            4.0038    -1.4782     4.4959 H       
  45 H45            2.3177    -1.2864     5.0331 H       
  46 H46            3.1590    -2.4739     1.0098 H       
  47 H47            4.4951    -2.1716     2.1464 H       
  48 H48            3.4583    -3.6037     2.3523 H       
  49 H49           -4.4369    -5.9072    -2.4349 H       
  50 H50           -2.2415     1.7979    -2.1235 H       
  51 H51           -4.3700    -8.3208    -2.8429 H       
  52 H52           -4.0611    -9.9091    -1.0365 H       
@<TRIPOS>BOND
   1    1   16 1
   2    1   50 1
   3    2    5 1
   4    2    6 1
   5    3    7 1
   6    3    9 1
   7    3   11 1
   8    4    8 1
   9    4   10 1
  10    4   14 1
  11    5   20 2
  12    6   22 2
  13    7    8 1
  14    7   12 1
  15    7   25 1
  16    8   26 1
  17    8   27 1
  18    9   10 1
  19    9   28 1
  20    9   29 1
  21   10   30 1
  22   10   31 1
  23   11   13 1
  24   11   32 1
  25   11   33 1
  26   12   16 1
  27   12   34 1
  28   12   35 1
  29   13   15 1
  30   13   36 1
  31   13   37 1
  32   14   17 1
  33   14   38 1
  34   14   39 1
  35   15   18 1
  36   15   19 1
  37   15   40 1
  38   16   41 1
  39   16   42 1
  40   17   20 ar
  41   17   21 ar
  42   18   43 1
  43   18   44 1
  44   18   45 1
  45   19   46 1
  46   19   47 1
  47   19   48 1
  48   20   22 ar
  49   21   23 ar
  50   21   49 1
  51   22   24 ar
  52   23   24 ar
  53   23   51 1
  54   24   52 1

#	End of record

#	Name: 16191697
#	Creating user name:	landrgr1
#	Creation time:	28. 01. 2015 13:52

#	Modifying user name:	landrgr1
#	Modification time:	28. 01. 2015 13:52

#	Program:	corina 3.48 0006  22.01.2010

@<TRIPOS>MOLECULE
16191697
  52   55    0    0    0
SMALL
NO_CHARGES


@<TRIPOS>ATOM
   1 Cl1            0.1001     3.9196    -0.9330 Cl      
   2 O2             1.4061     1.1159     4.7805 O.2     
   3 O3             0.5735     1.3269    -0.5964 O.3     
   4 N4             1.7817    -2.3902     1.2006 N.3     
   5 N5             1.8538    -0.1647     2.9626 N.am    
   6 N6             2.4821     0.3273    -0.6932 N.2     
   7 N7             1.8688    -4.1283     3.8196 N.ar    
   8 C8             3.0226    -0.4998     2.1408 C.3     
   9 C9             4.2508    -0.1066     2.9914 C.3     
  10 C10            3.0456    -1.9997     1.8395 C.3     
  11 C11            3.6611     0.9896     3.9087 C.3     
  12 C12            2.1823     0.6748     3.9597 C.2     
  13 C13            1.7980    -2.0757    -0.2343 C.3     
  14 C14            1.4966    -3.8137     1.4243 C.3     
  15 C15            1.5510    -0.6018    -0.4283 C.2     
  16 C16            1.0007    -4.0113     2.8336 C.ar    
  17 C17            0.3577     0.0164    -0.3667 C.2     
  18 C18            1.8923     1.4951    -0.7953 C.2     
  19 C19           -0.3582    -4.0682     3.0778 C.ar    
  20 C20           -0.9729    -0.6352    -0.0916 C.3     
  21 C21            2.5651     2.7797    -1.0814 C.ar    
  22 C22           -0.8041    -4.2503     4.3782 C.ar    
  23 C23            1.4810    -4.3019     5.0678 C.ar    
  24 C24            0.1380    -4.3687     5.3882 C.ar    
  25 C25            1.8202     3.9586    -1.1647 C.ar    
  26 C26            3.9479     2.8213    -1.2638 C.ar    
  27 C27            2.4556     5.1549    -1.4324 C.ar    
  28 C28            4.5699     4.0237    -1.5306 C.ar    
  29 C29            3.8262     5.1870    -1.6177 C.ar    
  30 H30            3.0078     0.0719     1.2129 H       
  31 H31            4.6078    -0.9543     3.5763 H       
  32 H32            5.0467     0.2958     2.3646 H       
  33 H33            3.1696    -2.5552     2.7691 H       
  34 H34            3.8757    -2.2230     1.1693 H       
  35 H35            4.0986     0.9292     4.9052 H       
  36 H36            3.8263     1.9771     3.4778 H       
  37 H37            0.9584    -0.5025     2.8042 H       
  38 H38            2.7692    -2.3396    -0.6531 H       
  39 H39            1.0177    -2.6445    -0.7398 H       
  40 H40            0.7335    -4.1464     0.7207 H       
  41 H41            2.4067    -4.3945     1.2746 H       
  42 H42           -1.0641    -3.9718     2.2661 H       
  43 H43           -1.7576     0.1212    -0.1050 H       
  44 H44           -1.1764    -1.3834    -0.8577 H       
  45 H45           -0.9472    -1.1148     0.8869 H       
  46 H46           -1.8602    -4.2983     4.5988 H       
  47 H47            2.2213    -4.3940     5.8488 H       
  48 H48           -0.1734    -4.5111     6.4125 H       
  49 H49            4.5302     1.9142    -1.1959 H       
  50 H50            1.8814     6.0673    -1.4976 H       
  51 H51            5.6401     4.0567    -1.6720 H       
  52 H52            4.3184     6.1252    -1.8271 H       
@<TRIPOS>BOND
   1    1   25 1
   2    2   12 2
   3    3   17 1
   4    3   18 1
   5    4   10 1
   6    4   13 1
   7    4   14 1
   8    5    8 1
   9    5   12 am
  10    5   37 1
  11    6   15 1
  12    6   18 2
  13    7   16 ar
  14    7   23 ar
  15    8    9 1
  16    8   10 1
  17    8   30 1
  18    9   11 1
  19    9   31 1
  20    9   32 1
  21   10   33 1
  22   10   34 1
  23   11   12 1
  24   11   35 1
  25   11   36 1
  26   13   15 1
  27   13   38 1
  28   13   39 1
  29   14   16 1
  30   14   40 1
  31   14   41 1
  32   15   17 2
  33   16   19 ar
  34   17   20 1
  35   18   21 1
  36   19   22 ar
  37   19   42 1
  38   20   43 1
  39   20   44 1
  40   20   45 1
  41   21   25 ar
  42   21   26 ar
  43   22   24 ar
  44   22   46 1
  45   23   24 ar
  46   23   47 1
  47   24   48 1
  48   25   27 ar
  49   26   28 ar
  50   26   49 1
  51   27   29 ar
  52   27   50 1
  53   28   29 ar
  54   28   51 1
  55   29   52 1

#	End of record

#	Name: 16191397
#	Creating user name:	landrgr1
#	Creation time:	28. 01. 2015 13:52

#	Modifying user name:	landrgr1
#	Modification time:	28. 01. 2015 13:52

#	Program:	corina 3.48 0006  22.01.2010

@<TRIPOS>MOLECULE
16191397
  64   66    0    0    0
SMALL
NO_CHARGES


@<TRIPOS>ATOM
   1 O1            -3.1595    -2.5550     0.3464 O.2     
   2 O2            -0.0164     1.3549     0.0095 O.3     
   3 N3            -2.9528    -6.6466     0.9667 N.3     
   4 N4            -3.5182   -10.8972     1.7265 N.pl3   
   5 N5            -4.4271   -10.7349     0.6730 N.2     
   6 C6            -1.9045    -4.5511     0.2521 C.3     
   7 C7            -3.0910    -5.1847     0.9821 C.3     
   8 C8            -1.8662    -5.0636    -1.1903 C.3     
   9 C9            -1.7709    -6.5918    -1.1782 C.3     
  10 C10           -2.9612    -7.1662    -0.4068 C.3     
  11 C11           -4.0001    -7.2829     1.7767 C.3     
  12 C12           -2.0578    -3.0519     0.2494 C.2     
  13 C13           -3.9806    -8.7716     1.5435 C.2     
  14 C14           -3.2602    -9.6779     2.2441 C.2     
  15 C15           -4.7035    -9.4607     0.5642 C.2     
  16 C16           -0.8701    -2.1910     0.1291 C.ar    
  17 C17           -2.9525   -12.1670     2.1889 C.3     
  18 C18           -2.3360    -9.3791     3.3962 C.3     
  19 C19           -5.6391    -8.8423    -0.4423 C.3     
  20 C20           -1.0087    -0.8002     0.1263 C.ar    
  21 C21            0.4028    -2.7610     0.0228 C.ar    
  22 C22           -4.0822   -13.0930     2.6438 C.3     
  23 C23           -2.1805   -12.8279     1.0451 C.3     
  24 C24            0.1136     0.0020     0.0131 C.ar    
  25 C25            1.5127    -1.9503    -0.0893 C.ar    
  26 C26            1.3721    -0.5742    -0.0971 C.ar    
  27 C27            1.1666     2.1197    -0.2307 C.3     
  28 C28            0.7834     3.4853    -0.8044 C.3     
  29 C29            1.9244     2.3134     1.0843 C.3     
  30 H30           -0.9785    -4.8219     0.7592 H       
  31 H31           -4.0176    -4.9022     0.4826 H       
  32 H32           -3.1127    -4.8328     2.0135 H       
  33 H33           -2.7752    -4.7594    -1.7092 H       
  34 H34           -0.9976    -4.6485    -1.7014 H       
  35 H35           -1.7863    -6.9655    -2.2021 H       
  36 H36           -0.8428    -6.8947    -0.6936 H       
  37 H37           -2.8887    -8.2536    -0.3841 H       
  38 H38           -3.8885    -6.8744    -0.8998 H       
  39 H39           -3.8182    -7.0781     2.8317 H       
  40 H40           -4.9732    -6.8832     1.4915 H       
  41 H41           -2.2766   -11.9811     3.0236 H       
  42 H42           -1.3310    -9.1933     3.0171 H       
  43 H43           -2.6923    -8.4973     3.9286 H       
  44 H44           -2.3160   -10.2307     4.0763 H       
  45 H45           -6.6466    -8.8063    -0.0277 H       
  46 H46           -5.3057    -7.8309    -0.6750 H       
  47 H47           -5.6420    -9.4422    -1.3523 H       
  48 H48           -1.9881    -0.3531     0.2117 H       
  49 H49            0.5164    -3.8350     0.0290 H       
  50 H50           -3.6613   -14.0378     2.9878 H       
  51 H51           -4.6322   -12.6222     3.4586 H       
  52 H52           -4.7581   -13.2789     1.8090 H       
  53 H53           -1.3757   -12.1682     0.7210 H       
  54 H54           -1.7596   -13.7727     1.3891 H       
  55 H55           -2.8564   -13.0138     0.2104 H       
  56 H56            2.4951    -2.3914    -0.1709 H       
  57 H57            2.2456     0.0549    -0.1856 H       
  58 H58            1.8022     1.5921    -0.9419 H       
  59 H59            0.1479     4.0128    -0.0932 H       
  60 H60            1.6857     4.0686    -0.9876 H       
  61 H61            0.2436     3.3472    -1.7412 H       
  62 H62            1.2889     2.8410     1.7955 H       
  63 H63            2.1974     1.3406     1.4931 H       
  64 H64            2.8268     2.8968     0.9011 H       
@<TRIPOS>BOND
   1    1   12 2
   2    2   24 1
   3    2   27 1
   4    3    7 1
   5    3   10 1
   6    3   11 1
   7    4    5 1
   8    4   14 1
   9    4   17 1
  10    5   15 2
  11    6    7 1
  12    6    8 1
  13    6   12 1
  14    6   30 1
  15    7   31 1
  16    7   32 1
  17    8    9 1
  18    8   33 1
  19    8   34 1
  20    9   10 1
  21    9   35 1
  22    9   36 1
  23   10   37 1
  24   10   38 1
  25   11   13 1
  26   11   39 1
  27   11   40 1
  28   12   16 1
  29   13   14 2
  30   13   15 1
  31   14   18 1
  32   15   19 1
  33   16   20 ar
  34   16   21 ar
  35   17   22 1
  36   17   23 1
  37   17   41 1
  38   18   42 1
  39   18   43 1
  40   18   44 1
  41   19   45 1
  42   19   46 1
  43   19   47 1
  44   20   24 ar
  45   20   48 1
  46   21   25 ar
  47   21   49 1
  48   22   50 1
  49   22   51 1
  50   22   52 1
  51   23   53 1
  52   23   54 1
  53   23   55 1
  54   24   26 ar
  55   25   26 ar
  56   25   56 1
  57   26   57 1
  58   27   28 1
  59   27   29 1
  60   27   58 1
  61   28   59 1
  62   28   60 1
  63   28   61 1
  64   29   62 1
  65   29   63 1
  66   29   64 1

#	End of record

#	Name: 16191172
#	Creating user name:	landrgr1
#	Creation time:	28. 01. 2015 13:52

#	Modifying user name:	landrgr1
#	Modification time:	28. 01. 2015 13:52

#	Program:	corina 3.48 0006  22.01.2010

@<TRIPOS>MOLECULE
16191172
  72   75    0    0    0
SMALL
NO_CHARGES


@<TRIPOS>ATOM
   1 O1            -2.4283    -1.1037    -3.2308 O.2     
   2 O2            -0.0173     1.4282     0.0099 O.3     
   3 N3            -7.1149    -0.6566    -2.4139 N.3     
   4 N4           -10.9162     0.6660    -1.1551 N.3     
   5 N5            -2.0725    -0.0889    -1.2903 N.am    
   6 C6            -8.5616    -0.4029    -2.4404 C.3     
   7 C7            -9.2260    -1.1043    -1.2526 C.3     
   8 C8            -8.8188     1.1034    -2.3426 C.3     
   9 C9           -14.1102     4.3140    -0.1721 C.3     
  10 C10          -10.7230    -0.7865    -1.2509 C.3     
  11 C11          -10.3276     1.3572    -2.3093 C.3     
  12 C12           -6.4607    -0.0978    -3.6040 C.3     
  13 C13           -6.5114    -0.1338    -1.1815 C.3     
  14 C14           -4.3075     0.0161    -2.3451 C.3     
  15 C15           -4.9855    -0.5050    -3.6153 C.3     
  16 C16           -5.0378    -0.5420    -1.1205 C.3     
  17 C17          -13.9662     2.8303    -0.5171 C.3     
  18 C18          -12.3396     0.9994    -1.0116 C.3     
  19 C19          -15.5978     4.7060    -0.1415 C.3     
  20 C20          -13.5541     4.5843     1.2412 C.3     
  21 C21          -12.4836     2.4831    -0.6666 C.3     
  22 C22          -15.8938     5.2009     1.2893 C.3     
  23 C23          -14.5130     5.6489     1.8295 C.3     
  24 C24           -2.8691    -0.4329    -2.3217 C.2     
  25 C25           -0.6743    -0.5253    -1.2675 C.3     
  26 C26            0.0021    -0.0041     0.0020 C.3     
  27 C27            1.4796    -0.4507     0.0295 C.3     
  28 C28            2.1925     0.8037     0.6040 C.3     
  29 C29            1.3259     1.9371    -0.0002 C.3     
  30 H30           -8.9815    -0.7854    -3.3708 H       
  31 H31           -9.0827    -2.1814    -1.3394 H       
  32 H32           -8.7779    -0.7507    -0.3240 H       
  33 H33           -8.3642     1.4918    -1.4312 H       
  34 H34           -8.3846     1.6037    -3.2082 H       
  35 H35          -13.5792     4.9208    -0.9055 H       
  36 H36          -11.1966    -1.2729    -0.3981 H       
  37 H37          -11.1730    -1.1527    -2.1737 H       
  38 H38          -10.7795     0.9810    -3.2271 H       
  39 H39          -10.5140     2.4279    -2.2253 H       
  40 H40           -6.9497    -0.4796    -4.5002 H       
  41 H41           -6.5372     0.9893    -3.5838 H       
  42 H42           -6.5877     0.9535    -1.1726 H       
  43 H43           -7.0373    -0.5416    -0.3182 H       
  44 H44           -4.3504     1.1051    -2.3299 H       
  45 H45           -4.9082    -1.5917    -3.6494 H       
  46 H46           -4.4966    -0.0771    -4.4905 H       
  47 H47           -4.5862    -0.1406    -0.2133 H       
  48 H48           -4.9613    -1.6293    -1.1154 H       
  49 H49          -14.4018     2.2280     0.2801 H       
  50 H50          -14.4841     2.6231    -1.4535 H       
  51 H51          -12.8576     0.7922    -1.9480 H       
  52 H52          -12.7753     0.3971    -0.2144 H       
  53 H53          -15.7886     5.5037    -0.8595 H       
  54 H54          -16.2172     3.8393    -0.3724 H       
  55 H55          -13.5793     3.6748     1.8414 H       
  56 H56          -12.5386     4.9761     1.1830 H       
  57 H57          -12.0480     3.0854    -1.4638 H       
  58 H58          -11.9657     2.6903     0.2698 H       
  59 H59          -16.5858     6.0427     1.2663 H       
  60 H60          -16.2969     4.3910     1.8973 H       
  61 H61          -14.4975     5.6227     2.9191 H       
  62 H62          -14.2586     6.6431     1.4622 H       
  63 H63           -2.4251     0.4476    -0.5632 H       
  64 H64           -0.6333    -1.6145    -1.2800 H       
  65 H65           -0.1566    -0.1323    -2.1426 H       
  66 H66           -0.5174    -0.3858     0.8810 H       
  67 H67            1.6133    -1.3088     0.6883 H       
  68 H68            1.8364    -0.6732    -0.9762 H       
  69 H69            2.1505     0.8151     1.6932 H       
  70 H70            3.2222     0.8662     0.2518 H       
  71 H71            1.6416     2.1514    -1.0212 H       
  72 H72            1.3950     2.8347     0.6143 H       
@<TRIPOS>BOND
   1    1   24 2
   2    2   26 1
   3    2   29 1
   4    3    6 1
   5    3   12 1
   6    3   13 1
   7    4   10 1
   8    4   11 1
   9    4   18 1
  10    5   24 am
  11    5   25 1
  12    5   63 1
  13    6    7 1
  14    6    8 1
  15    6   30 1
  16    7   10 1
  17    7   31 1
  18    7   32 1
  19    8   11 1
  20    8   33 1
  21    8   34 1
  22    9   17 1
  23    9   19 1
  24    9   20 1
  25    9   35 1
  26   10   36 1
  27   10   37 1
  28   11   38 1
  29   11   39 1
  30   12   15 1
  31   12   40 1
  32   12   41 1
  33   13   16 1
  34   13   42 1
  35   13   43 1
  36   14   15 1
  37   14   16 1
  38   14   24 1
  39   14   44 1
  40   15   45 1
  41   15   46 1
  42   16   47 1
  43   16   48 1
  44   17   21 1
  45   17   49 1
  46   17   50 1
  47   18   21 1
  48   18   51 1
  49   18   52 1
  50   19   22 1
  51   19   53 1
  52   19   54 1
  53   20   23 1
  54   20   55 1
  55   20   56 1
  56   21   57 1
  57   21   58 1
  58   22   23 1
  59   22   59 1
  60   22   60 1
  61   23   61 1
  62   23   62 1
  63   25   26 1
  64   25   64 1
  65   25   65 1
  66   26   27 1
  67   26   66 1
  68   27   28 1
  69   27   67 1
  70   27   68 1
  71   28   29 1
  72   28   69 1
  73   28   70 1
  74   29   71 1
  75   29   72 1

#	End of record

#	Name: 16189945
#	Creating user name:	landrgr1
#	Creation time:	28. 01. 2015 13:52

#	Modifying user name:	landrgr1
#	Modification time:	28. 01. 2015 13:52

#	Program:	corina 3.48 0006  22.01.2010

@<TRIPOS>MOLECULE
16189945
  49   52    0    0    0
SMALL
NO_CHARGES


@<TRIPOS>ATOM
   1 S1            -0.2842     2.3651    -0.6973 S.3     
   2 O2            -0.8405    -1.5209    -0.7168 O.2     
   3 N3            -4.8677    -0.5446    -0.6539 N.3     
   4 N4            -7.9836    -0.1529    -1.5476 N.pl3   
   5 N5            -6.4156     0.3081    -3.2405 N.ar    
   6 C6            -2.5201     0.1098    -0.4072 C.3     
   7 C7            -3.4845    -0.9702    -0.9027 C.3     
   8 C8            -2.7422     0.3373     1.0906 C.3     
   9 C9            -4.2024     0.7325     1.3278 C.3     
  10 C10           -5.1180    -0.3656     0.7820 C.3     
  11 C11           -5.8239    -1.4928    -1.2408 C.3     
  12 C12           -1.1002    -0.3369    -0.6431 C.2     
  13 C13           -7.2275    -1.0770    -0.8829 C.2     
  14 C14           -0.0717     0.6215    -0.7785 C.2     
  15 C15           -7.9541    -1.5521     0.1484 C.2     
  16 C16            1.2537     0.3418    -0.9952 C.2     
  17 C17           -9.1953    -0.0501    -0.9242 C.2     
  18 C18           -9.2037    -0.9000     0.1222 C.2     
  19 C19           -7.5822     0.5710    -2.6738 C.ar    
  20 C20            2.0360     1.4651    -1.0879 C.2     
  21 C21            1.7961    -1.0587    -1.1191 C.3     
  22 C22            1.3821     2.6272    -0.9530 C.2     
  23 C23           -8.4118     1.5595    -3.1880 C.ar    
  24 C24           -8.0026     2.2688    -4.3042 C.ar    
  25 C25           -5.9989     0.9668    -4.3043 C.ar    
  26 C26           -6.7724     1.9626    -4.8687 C.ar    
  27 H27           -2.7046     1.0382    -0.9476 H       
  28 H28           -3.2901    -1.9020    -0.3717 H       
  29 H29           -3.3387    -1.1245    -1.9718 H       
  30 H30           -2.5201    -0.5803     1.6353 H       
  31 H31           -2.0875     1.1363     1.4387 H       
  32 H32           -4.3774     0.8543     2.3967 H       
  33 H33           -4.4134     1.6707     0.8146 H       
  34 H34           -6.1587    -0.0807     0.9364 H       
  35 H35           -4.9160    -1.3002     1.3051 H       
  36 H36           -5.7117    -1.4978    -2.3250 H       
  37 H37           -5.6304    -2.4921    -0.8509 H       
  38 H38           -7.6370    -2.2965     0.8637 H       
  39 H39          -10.0059     0.6000    -1.2186 H       
  40 H40          -10.0190    -1.0536     0.8137 H       
  41 H41            3.1015     1.4165    -1.2577 H       
  42 H42            1.7668    -1.3687    -2.1637 H       
  43 H43            2.8256    -1.0826    -0.7618 H       
  44 H44            1.1882    -1.7379    -0.5213 H       
  45 H45            1.8482     3.6004    -1.0000 H       
  46 H46           -9.3635     1.7715    -2.7235 H       
  47 H47           -8.6266     3.0427    -4.7263 H       
  48 H48           -5.0407     0.7247    -4.7399 H       
  49 H49           -6.4235     2.4971    -5.7399 H       
@<TRIPOS>BOND
   1    1   14 1
   2    1   22 1
   3    2   12 2
   4    3    7 1
   5    3   10 1
   6    3   11 1
   7    4   13 1
   8    4   17 1
   9    4   19 1
  10    5   19 ar
  11    5   25 ar
  12    6    7 1
  13    6    8 1
  14    6   12 1
  15    6   27 1
  16    7   28 1
  17    7   29 1
  18    8    9 1
  19    8   30 1
  20    8   31 1
  21    9   10 1
  22    9   32 1
  23    9   33 1
  24   10   34 1
  25   10   35 1
  26   11   13 1
  27   11   36 1
  28   11   37 1
  29   12   14 1
  30   13   15 2
  31   14   16 2
  32   15   18 1
  33   15   38 1
  34   16   20 1
  35   16   21 1
  36   17   18 2
  37   17   39 1
  38   18   40 1
  39   19   23 ar
  40   20   22 2
  41   20   41 1
  42   21   42 1
  43   21   43 1
  44   21   44 1
  45   22   45 1
  46   23   24 ar
  47   23   46 1
  48   24   26 ar
  49   24   47 1
  50   25   26 ar
  51   25   48 1
  52   26   49 1

#	End of record

#	Name: 16189741
#	Creating user name:	landrgr1
#	Creation time:	28. 01. 2015 13:52

#	Modifying user name:	landrgr1
#	Modification time:	28. 01. 2015 13:52

#	Program:	corina 3.48 0006  22.01.2010

@<TRIPOS>MOLECULE
16189741
  50   50    0    0    0
SMALL
NO_CHARGES


@<TRIPOS>ATOM
   1 Br1          -12.1489    -3.6075     6.9666 Br      
   2 O2             0.2198     0.7077     0.0340 O.3     
   3 O3             1.3006    -1.1619     0.5457 O.2     
   4 O4            -6.3133    -3.1725     4.0960 O.2     
   5 N5            -3.2133    -2.4212     1.5024 N.3     
   6 N6            -0.9111    -1.2993     0.4041 N.am    
   7 N7            -7.7840    -1.7857     3.1816 N.am    
   8 C8            -1.9032    -2.9723     1.8738 C.3     
   9 C9            -3.1462    -0.9654     1.3184 C.3     
  10 C10           -0.9098    -2.7331     0.7318 C.3     
  11 C11           -2.2037    -0.6439     0.1537 C.3     
  12 C12           -4.2357    -2.7800     2.4943 C.3     
  13 C13           -5.5168    -1.9917     2.2143 C.3     
  14 C14            0.2416    -0.6043     0.3355 C.2     
  15 C15           -6.5656    -2.3598     3.2318 C.2     
  16 C16            1.4989     1.3924    -0.0224 C.3     
  17 C17           -8.7925    -2.2066     4.0561 C.ar    
  18 C18           -9.7316    -1.2973     4.5239 C.ar    
  19 C19           -8.8590    -3.5359     4.4530 C.ar    
  20 C20            1.2745     2.8640    -0.3762 C.3     
  21 C21          -10.7258    -1.7154     5.3869 C.ar    
  22 C22           -9.8550    -3.9485     5.3158 C.ar    
  23 C23          -10.7863    -3.0388     5.7851 C.ar    
  24 C24          -11.7452    -0.7288     5.8954 C.3     
  25 H25           -1.5442    -2.4796     2.7774 H       
  26 H26           -1.9973    -4.0429     2.0558 H       
  27 H27           -4.1418    -0.5804     1.0976 H       
  28 H28           -2.7699    -0.5005     2.2297 H       
  29 H29           -1.2119    -3.3089    -0.1430 H       
  30 H30            0.0891    -3.0360     1.0459 H       
  31 H31           -2.0604     0.4345     0.0856 H       
  32 H32           -2.6303    -1.0189    -0.7767 H       
  33 H33           -4.4449    -3.8478     2.4306 H       
  34 H34           -3.8725    -2.5399     3.4936 H       
  35 H35           -5.3076    -0.9239     2.2780 H       
  36 H36           -5.8800    -2.2318     1.2150 H       
  37 H37           -7.9619    -1.0809     2.5394 H       
  38 H38            1.9913     1.3230     0.9476 H       
  39 H39            2.1267     0.9276    -0.7826 H       
  40 H40           -9.6846    -0.2639     4.2136 H       
  41 H41           -8.1327    -4.2464     4.0868 H       
  42 H42            0.7821     2.9334    -1.3462 H       
  43 H43            0.6467     3.3288     0.3841 H       
  44 H44            2.2347     3.3780    -0.4185 H       
  45 H45           -9.9072    -4.9820     5.6248 H       
  46 H46          -12.5973    -0.7042     5.2162 H       
  47 H47          -12.0801    -1.0313     6.8876 H       
  48 H48          -11.2955     0.2625     5.9503 H       
  49 Cl49           7.2347     8.3780    11.9666 Cl      
  50 H50            7.2347     9.7480    11.9666 H       
@<TRIPOS>BOND
   1    1   23 1
   2    2   14 1
   3    2   16 1
   4    3   14 2
   5    4   15 2
   6    5    8 1
   7    5    9 1
   8    5   12 1
   9    6   10 1
  10    6   11 1
  11    6   14 am
  12    7   15 am
  13    7   17 1
  14    7   37 1
  15    8   10 1
  16    8   25 1
  17    8   26 1
  18    9   11 1
  19    9   27 1
  20    9   28 1
  21   10   29 1
  22   10   30 1
  23   11   31 1
  24   11   32 1
  25   12   13 1
  26   12   33 1
  27   12   34 1
  28   13   15 1
  29   13   35 1
  30   13   36 1
  31   16   20 1
  32   16   38 1
  33   16   39 1
  34   17   18 ar
  35   17   19 ar
  36   18   21 ar
  37   18   40 1
  38   19   22 ar
  39   19   41 1
  40   20   42 1
  41   20   43 1
  42   20   44 1
  43   21   23 ar
  44   21   24 1
  45   22   23 ar
  46   22   45 1
  47   24   46 1
  48   24   47 1
  49   24   48 1
  50   49   50 1

#	End of record

#	Name: 16189702
#	Creating user name:	landrgr1
#	Creation time:	28. 01. 2015 13:52

#	Modifying user name:	landrgr1
#	Modification time:	28. 01. 2015 13:52

#	Program:	corina 3.48 0006  22.01.2010

@<TRIPOS>MOLECULE
16189702
  33   35    0    0    0
SMALL
NO_CHARGES


@<TRIPOS>ATOM
   1 Cl1            0.0801     1.1075     9.9968 Cl      
   2 O2            -0.0164     1.3553     0.0095 O.3     
   3 O3             0.0062     4.1214     4.9797 O.2     
   4 N4             0.0256    -0.0513     2.4133 N.pl3   
   5 C5             0.0231    -0.7128     1.2062 C.ar    
   6 C6             0.0416    -2.1208     1.1803 C.ar    
   7 C7             0.0457    -0.7538     3.5819 C.2     
   8 C8             0.0629    -2.8407     2.4010 C.2     
   9 C9             0.0643    -2.1576     3.5774 C.2     
  10 C10            0.0021    -0.0041     0.0020 C.ar    
  11 C11            0.0384    -2.7928    -0.0506 C.ar    
  12 C12            0.0480    -0.0618     4.8098 C.2     
  13 C13           -0.0004    -0.6917    -1.1959 C.ar    
  14 C14            0.0170    -2.0806    -1.2142 C.ar    
  15 C15            0.0302     1.2969     4.8241 C.2     
  16 C16            0.0325     2.0143     6.0971 C.2     
  17 C17            0.0531     1.3074     7.3076 C.2     
  18 C18            0.0199     3.4309     6.1196 C.2     
  19 C19            0.0551     1.9899     8.5020 C.2     
  20 C20            0.0223     4.0989     7.3501 C.2     
  21 C21            0.0369     3.3803     8.5230 C.2     
  22 H22            0.0170     0.9185     2.4327 H       
  23 H23            0.0768    -3.9206     2.3972 H       
  24 H24            0.0805    -2.6978     4.5124 H       
  25 H25            0.0529    -3.8724    -0.0775 H       
  26 H26            0.0639    -0.6115     5.7393 H       
  27 H27           -0.0170    -0.1446    -2.1269 H       
  28 H28            0.0148    -2.6024    -2.1598 H       
  29 H29            0.0143     1.8465     3.8945 H       
  30 H30            0.0670     0.2275     7.3024 H       
  31 H31            0.0131     5.1785     7.3784 H       
  32 H32            0.8616     1.7606     0.0033 H       
  33 H33            0.0384     3.9010     9.4692 H       
@<TRIPOS>BOND
   1    1   19 1
   2    2   10 1
   3    2   32 1
   4    3   18 2
   5    4    5 1
   6    4    7 1
   7    4   22 1
   8    5    6 ar
   9    5   10 ar
  10    6    8 1
  11    6   11 ar
  12    7    9 1
  13    7   12 2
  14    8    9 2
  15    8   23 1
  16    9   24 1
  17   10   13 ar
  18   11   14 ar
  19   11   25 1
  20   12   15 1
  21   12   26 1
  22   13   14 ar
  23   13   27 1
  24   14   28 1
  25   15   16 2
  26   15   29 1
  27   16   17 1
  28   16   18 1
  29   17   19 2
  30   17   30 1
  31   18   20 1
  32   19   21 1
  33   20   21 2
  34   20   31 1
  35   21   33 1

#	End of record

#	Name: 16189572
#	Creating user name:	landrgr1
#	Creation time:	28. 01. 2015 13:52

#	Modifying user name:	landrgr1
#	Modification time:	28. 01. 2015 13:52

#	Program:	corina 3.48 0006  22.01.2010

@<TRIPOS>MOLECULE
16189572
  43   45    0    0    0
SMALL
NO_CHARGES


@<TRIPOS>ATOM
   1 O1             1.1120     3.3031     0.0855 O.2     
   2 O2            -1.0597     1.9768    -2.3249 O.2     
   3 N3            -0.0169     1.3932     0.0097 N.am    
   4 N4             0.0021    -0.0041     0.0020 N.2     
   5 N5            -2.9055     2.9962    -1.6351 N.am    
   6 C6             2.3541     0.0374     0.6473 C.3     
   7 C7             2.4494     1.3637    -0.1100 C.3     
   8 C8             1.0761    -0.6676     0.2770 C.2     
   9 C9             1.1336     2.0931     0.0025 C.2     
  10 C10           -1.2987     2.1024     0.0196 C.3     
  11 C11            1.0497    -2.1414     0.2278 C.ar    
  12 C12           -1.7450     2.3533    -1.3978 C.2     
  13 C13           -3.3393     3.2401    -3.0130 C.3     
  14 C14           -0.1276    -2.8111    -0.1134 C.ar    
  15 C15            2.2035    -2.8738     0.5166 C.ar    
  16 C16           -4.6579     3.9696    -3.0028 C.ar    
  17 C17           -0.1449    -4.1896    -0.1579 C.ar    
  18 C18            2.1717    -4.2520     0.4682 C.ar    
  19 C19            1.0003    -4.9089     0.1350 C.ar    
  20 C20           -4.6831     5.3517    -2.9952 C.ar    
  21 C21           -5.8423     3.2568    -3.0068 C.ar    
  22 C22           -5.8926     6.0209    -2.9858 C.ar    
  23 C23           -7.0518     3.9259    -2.9975 C.ar    
  24 C24           -7.0770     5.3080    -2.9845 C.ar    
  25 H25            3.2045    -0.5919     0.3850 H       
  26 H26            2.3640     0.2307     1.7199 H       
  27 H27            3.2424     1.9739     0.3224 H       
  28 H28            2.6694     1.1689    -1.1596 H       
  29 H29           -2.0451     1.4968     0.5337 H       
  30 H30           -1.1834     3.0543     0.5381 H       
  31 H31           -2.5930     3.8457    -3.5271 H       
  32 H32           -3.4547     2.2882    -3.5315 H       
  33 H33           -3.4536     3.2973    -0.8936 H       
  34 H34           -1.0224    -2.2510    -0.3415 H       
  35 H35            3.1184    -2.3624     0.7768 H       
  36 H36           -1.0544    -4.7088    -0.4215 H       
  37 H37            3.0630    -4.8196     0.6912 H       
  38 H38            0.9809    -5.9882     0.0993 H       
  39 H39           -3.7578     5.9087    -2.9962 H       
  40 H40           -5.8226     2.1770    -3.0176 H       
  41 H41           -5.9123     7.1007    -2.9791 H       
  42 H42           -7.9771     3.3690    -3.0010 H       
  43 H43           -8.0220     5.8308    -2.9768 H       
@<TRIPOS>BOND
   1    1    9 2
   2    2   12 2
   3    3    4 1
   4    3    9 am
   5    3   10 1
   6    4    8 2
   7    5   12 am
   8    5   13 1
   9    5   33 1
  10    6    7 1
  11    6    8 1
  12    6   25 1
  13    6   26 1
  14    7    9 1
  15    7   27 1
  16    7   28 1
  17    8   11 1
  18   10   12 1
  19   10   29 1
  20   10   30 1
  21   11   14 ar
  22   11   15 ar
  23   13   16 1
  24   13   31 1
  25   13   32 1
  26   14   17 ar
  27   14   34 1
  28   15   18 ar
  29   15   35 1
  30   16   20 ar
  31   16   21 ar
  32   17   19 ar
  33   17   36 1
  34   18   19 ar
  35   18   37 1
  36   19   38 1
  37   20   22 ar
  38   20   39 1
  39   21   23 ar
  40   21   40 1
  41   22   24 ar
  42   22   41 1
  43   23   24 ar
  44   23   42 1
  45   24   43 1

#	End of record

#	Name: 16189547
#	Creating user name:	landrgr1
#	Creation time:	28. 01. 2015 13:52

#	Modifying user name:	landrgr1
#	Modification time:	28. 01. 2015 13:52

#	Program:	corina 3.48 0006  22.01.2010

@<TRIPOS>MOLECULE
16189547
  63   64    0    0    0
SMALL
NO_CHARGES


@<TRIPOS>ATOM
   1 Cl1            0.0000     0.0000     0.0000 Cl      
   2 H2             0.0000     1.3700     0.0000 H       
   3 N3            10.9247    10.7226     8.5625 N.3     
   4 N4            10.1194    13.1534     9.8068 N.3     
   5 N5            13.7539     8.9111     7.1452 N.pl3   
   6 N6            12.2357     9.9643     6.0831 N.2     
   7 N7            14.1572     9.1240     5.9383 N.2     
   8 N8            13.2380     9.7601     5.2997 N.2     
   9 C9            11.6453     9.4454     8.4768 C.3     
  10 C10           11.8613    11.8484     8.6858 C.3     
  11 C11            9.9672    10.7133     9.6772 C.3     
  12 C12           10.6385     8.2971     8.3833 C.3     
  13 C13           11.0769    13.1626     8.6920 C.3     
  14 C14            9.1829    12.0276     9.6835 C.3     
  15 C15           12.5229     9.4449     7.2517 C.2     
  16 C16            9.8344     8.4280     7.0883 C.3     
  17 C17           14.4943     8.2139     8.1997 C.3     
  18 C18            9.3988    14.4306     9.8925 C.3     
  19 C19           10.5982     7.7589     5.9439 C.3     
  20 C20            8.4751     7.7472     7.2610 C.3     
  21 C21           15.7944     7.6502     7.6228 C.3     
  22 C22           14.8199     9.1946     9.3280 C.3     
  23 C23           13.6416     7.0687     8.7497 C.3     
  24 C24            8.2649    14.3026    10.8768 C.ar    
  25 C25            8.4722    14.5950    12.2118 C.ar    
  26 C26            7.0160    13.8983    10.4437 C.ar    
  27 C27            7.4321    14.4776    13.1148 C.ar    
  28 C28            5.9758    13.7808    11.3466 C.ar    
  29 C29            6.1845    14.0682    12.6825 C.ar    
  30 H30           12.2625     9.3160     9.3659 H       
  31 H31           12.4217    11.7550     9.6160 H       
  32 H32           12.5518    11.8410     7.8425 H       
  33 H33            9.2769     9.8784     9.5567 H       
  34 H34           10.5061    10.6070    10.6187 H       
  35 H35           11.1709     7.3460     8.3859 H       
  36 H36            9.9617     8.3369     9.2369 H       
  37 H37           10.5380    13.2690     7.7506 H       
  38 H38           11.7672    13.9975     8.8126 H       
  39 H39            8.4923    12.0350    10.5268 H       
  40 H40            8.6224    12.1210     8.7533 H       
  41 H41            9.6857     9.4830     6.8580 H       
  42 H42           10.0823    15.2118    10.2252 H       
  43 H43            9.0008    14.6898     8.9114 H       
  44 H44           10.0945     7.9674     5.0000 H       
  45 H45           11.6147     8.1507     5.9075 H       
  46 H46           10.6296     6.6819     6.1087 H       
  47 H47            7.9310     8.2239     8.0763 H       
  48 H48            7.9022     7.8405     6.3384 H       
  49 H49            8.6238     6.6922     7.4912 H       
  50 H50           16.4018     8.4660     7.2311 H       
  51 H51           16.3452     7.1314     8.4074 H       
  52 H52           15.5624     6.9515     6.8190 H       
  53 H53           13.8951     9.5230     9.8022 H       
  54 H54           15.4518     8.7016    10.0668 H       
  55 H55           15.3450    10.0577     8.9189 H       
  56 H56           13.4096     6.3700     7.9458 H       
  57 H57           14.1924     6.5499     9.5343 H       
  58 H58           12.7154     7.4702     9.1607 H       
  59 H59            9.4469    14.9149    12.5495 H       
  60 H60            6.8528    13.6744     9.3998 H       
  61 H61            7.5943    14.7053    14.1579 H       
  62 H62            5.0000    13.4653    11.0081 H       
  63 H63            5.3720    13.9761    13.3880 H       
@<TRIPOS>BOND
   1    1    2 1
   2    3    9 1
   3    3   10 1
   4    3   11 1
   5    4   13 1
   6    4   14 1
   7    4   18 1
   8    5    7 1
   9    5   15 1
  10    5   17 1
  11    6    8 1
  12    6   15 2
  13    7    8 2
  14    9   12 1
  15    9   15 1
  16    9   30 1
  17   10   13 1
  18   10   31 1
  19   10   32 1
  20   11   14 1
  21   11   33 1
  22   11   34 1
  23   12   16 1
  24   12   35 1
  25   12   36 1
  26   13   37 1
  27   13   38 1
  28   14   39 1
  29   14   40 1
  30   16   19 1
  31   16   20 1
  32   16   41 1
  33   17   21 1
  34   17   22 1
  35   17   23 1
  36   18   24 1
  37   18   42 1
  38   18   43 1
  39   19   44 1
  40   19   45 1
  41   19   46 1
  42   20   47 1
  43   20   48 1
  44   20   49 1
  45   21   50 1
  46   21   51 1
  47   21   52 1
  48   22   53 1
  49   22   54 1
  50   22   55 1
  51   23   56 1
  52   23   57 1
  53   23   58 1
  54   24   25 ar
  55   24   26 ar
  56   25   27 ar
  57   25   59 1
  58   26   28 ar
  59   26   60 1
  60   27   29 ar
  61   27   61 1
  62   28   29 ar
  63   28   62 1
  64   29   63 1

#	End of record

#	Name: 16189542
#	Creating user name:	landrgr1
#	Creation time:	28. 01. 2015 13:52

#	Modifying user name:	landrgr1
#	Modification time:	28. 01. 2015 13:52

#	Program:	corina 3.48 0006  22.01.2010

@<TRIPOS>MOLECULE
16189542
  50   53    0    0    0
SMALL
NO_CHARGES


@<TRIPOS>ATOM
   1 O1             1.8939    -7.4632    -0.6312 O.2     
   2 O2            -0.6970     0.8902     1.1345 O.3     
   3 O3             3.7437    -6.9875     3.8475 O.3     
   4 O4             6.2030    -5.8668     3.7008 O.2     
   5 N5            -0.2550    -6.7247    -0.3355 N.am    
   6 N6            -0.8364    -5.4848    -0.0594 N.pl3   
   7 C7             0.1289    -4.5332     0.0499 C.2     
   8 C8             1.3777    -5.1598    -0.1591 C.2     
   9 C9             1.0836    -6.5841    -0.4064 C.2     
  10 C10           -0.0879    -3.1089     0.3344 C.ar    
  11 C11           -0.9523    -7.9249    -0.5059 C.ar    
  12 C12            2.6343    -4.5545    -0.1363 C.2     
  13 C13            3.5625    -4.8974     0.8643 C.2     
  14 C14           -1.3896    -2.5923     0.3857 C.ar    
  15 C15            1.0057    -2.2627     0.5612 C.ar    
  16 C16           -0.2613    -9.0986    -0.7782 C.ar    
  17 C17           -2.3368    -7.9469    -0.3975 C.ar    
  18 C18           -1.5863    -1.2621     0.6521 C.ar    
  19 C19            0.7975    -0.9340     0.8268 C.ar    
  20 C20           -0.4966    -0.4254     0.8713 C.ar    
  21 C21            3.1955    -5.7936     1.8905 C.2     
  22 C22            4.8612    -4.3504     0.8389 C.2     
  23 C23           -0.9529   -10.2823    -0.9454 C.ar    
  24 C24           -3.0223    -9.1339    -0.5659 C.ar    
  25 C25            4.0952    -6.1240     2.8569 C.2     
  26 C26           -2.3318   -10.2997    -0.8425 C.ar    
  27 C27            5.7582    -4.6817     1.8051 C.2     
  28 C28            5.3930    -5.5699     2.8308 C.2     
  29 C29            0.4653     1.6931     1.3498 C.3     
  30 C30            2.4138    -7.5093     3.8116 C.3     
  31 H31           -1.7882    -5.3261     0.0398 H       
  32 H32            2.8948    -3.8226    -0.8866 H       
  33 H33           -2.2361    -3.2409     0.2153 H       
  34 H34            2.0108    -2.6566     0.5273 H       
  35 H35            0.8155    -9.0855    -0.8594 H       
  36 H36           -2.8766    -7.0368    -0.1815 H       
  37 H37           -2.5890    -0.8629     0.6915 H       
  38 H38            1.6397    -0.2810     1.0022 H       
  39 H39            2.2019    -6.2165     1.9093 H       
  40 H40            5.1439    -3.6678     0.0511 H       
  41 H41           -0.4162   -11.1953    -1.1571 H       
  42 H42           -4.0989    -9.1517    -0.4817 H       
  43 H43           -2.8703   -11.2266    -0.9741 H       
  44 H44            6.7531    -4.2620     1.7840 H       
  45 H45            1.0219     1.3052     2.2030 H       
  46 H46            1.0961     1.6649     0.4613 H       
  47 H47            0.1646     2.7216     1.5495 H       
  48 H48            2.2649    -8.1828     4.6556 H       
  49 H49            1.6996    -6.6881     3.8718 H       
  50 H50            2.2626    -8.0549     2.8802 H       
@<TRIPOS>BOND
   1    1    9 2
   2    2   20 1
   3    2   29 1
   4    3   25 1
   5    3   30 1
   6    4   28 2
   7    5    6 1
   8    5    9 am
   9    5   11 1
  10    6    7 1
  11    6   31 1
  12    7    8 2
  13    7   10 1
  14    8    9 1
  15    8   12 1
  16   10   14 ar
  17   10   15 ar
  18   11   16 ar
  19   11   17 ar
  20   12   13 2
  21   12   32 1
  22   13   21 1
  23   13   22 1
  24   14   18 ar
  25   14   33 1
  26   15   19 ar
  27   15   34 1
  28   16   23 ar
  29   16   35 1
  30   17   24 ar
  31   17   36 1
  32   18   20 ar
  33   18   37 1
  34   19   20 ar
  35   19   38 1
  36   21   25 2
  37   21   39 1
  38   22   27 2
  39   22   40 1
  40   23   26 ar
  41   23   41 1
  42   24   26 ar
  43   24   42 1
  44   25   28 1
  45   26   43 1
  46   27   28 1
  47   27   44 1
  48   29   45 1
  49   29   46 1
  50   29   47 1
  51   30   48 1
  52   30   49 1
  53   30   50 1

#	End of record

#	Name: 16189457
#	Creating user name:	landrgr1
#	Creation time:	28. 01. 2015 13:52

#	Modifying user name:	landrgr1
#	Modification time:	28. 01. 2015 13:52

#	Program:	corina 3.48 0006  22.01.2010

@<TRIPOS>MOLECULE
16189457
  46   47    0    0    0
SMALL
NO_CHARGES


@<TRIPOS>ATOM
   1 O1             2.6542     3.1322    -0.3625 O.3     
   2 O2             3.9652     1.3494    -0.6346 O.2     
   3 O3             3.3418     0.5595    -3.2505 O.2     
   4 O4             7.5218     0.0035    -8.2433 O.3     
   5 O5             5.9311    -0.0188    -9.7921 O.2     
   6 N6             0.5604     1.2391    -0.3037 N.3     
   7 N7             2.3230     1.6824    -4.8701 N.am    
   8 C8             1.6868     1.0517    -1.2327 C.3     
   9 C9             0.2803     2.6689    -0.1078 C.3     
  10 C10            1.2943     1.5521    -2.6243 C.3     
  11 C11           -0.6353     0.5283    -0.7760 C.3     
  12 C12            1.5065     3.3491     0.5081 C.3     
  13 C13            2.8676     1.8472    -0.7207 C.2     
  14 C14           -1.6412     0.4049     0.3702 C.3     
  15 C15            2.3936     1.2284    -3.6030 C.2     
  16 C16            3.2916     1.3072    -5.7999 C.ar    
  17 C17            2.9345     1.0988    -7.1285 C.ar    
  18 C18            4.6143     1.1476    -5.3983 C.ar    
  19 C19            5.2170     0.5611    -7.6482 C.ar    
  20 C20            3.8881     0.7280    -8.0492 C.ar    
  21 C21            5.5733     0.7773    -6.3136 C.ar    
  22 C22            6.2414     0.1639    -8.6316 C.2     
  23 C23            8.4763    -0.3885    -9.2649 C.3     
  24 C24            9.8666    -0.5204    -8.6401 C.3     
  25 H25            1.9477    -0.0054    -1.2836 H       
  26 H26            0.0536     3.1299    -1.0691 H       
  27 H27           -0.5730     2.7838     0.5607 H       
  28 H28            0.3721     1.0638    -2.9392 H       
  29 H29            1.1418     2.6309    -2.5929 H       
  30 H30           -1.0872     1.0837    -1.5978 H       
  31 H31           -0.3539    -0.4666    -1.1211 H       
  32 H32            1.7070     2.9203     1.4900 H       
  33 H33            1.3198     4.4185     0.6063 H       
  34 H34           -1.9226     1.3998     0.7154 H       
  35 H35           -2.5284    -0.1225     0.0198 H       
  36 H36           -1.1893    -0.1505     1.1920 H       
  37 H37            1.5982     2.2701    -5.1350 H       
  38 H38            1.9077     1.2279    -7.4376 H       
  39 H39            4.8888     1.3148    -4.3672 H       
  40 H40            3.6100     0.5657    -9.0801 H       
  41 H41            6.5998     0.6540    -6.0013 H       
  42 H42            8.1779    -1.3455    -9.6928 H       
  43 H43            8.5006     0.3683   -10.0490 H       
  44 H44           10.1650     0.4366    -8.2122 H       
  45 H45            9.8423    -1.2772    -7.8560 H       
  46 H46           10.5831    -0.8147    -9.4070 H       
@<TRIPOS>BOND
   1    1   12 1
   2    1   13 1
   3    2   13 2
   4    3   15 2
   5    4   22 1
   6    4   23 1
   7    5   22 2
   8    6    8 1
   9    6    9 1
  10    6   11 1
  11    7   15 am
  12    7   16 1
  13    7   37 1
  14    8   10 1
  15    8   13 1
  16    8   25 1
  17    9   12 1
  18    9   26 1
  19    9   27 1
  20   10   15 1
  21   10   28 1
  22   10   29 1
  23   11   14 1
  24   11   30 1
  25   11   31 1
  26   12   32 1
  27   12   33 1
  28   14   34 1
  29   14   35 1
  30   14   36 1
  31   16   17 ar
  32   16   18 ar
  33   17   20 ar
  34   17   38 1
  35   18   21 ar
  36   18   39 1
  37   19   20 ar
  38   19   21 ar
  39   19   22 1
  40   20   40 1
  41   21   41 1
  42   23   24 1
  43   23   42 1
  44   23   43 1
  45   24   44 1
  46   24   45 1
  47   24   46 1

#	End of record

#	Name: 16189415
#	Creating user name:	landrgr1
#	Creation time:	28. 01. 2015 13:52

#	Modifying user name:	landrgr1
#	Modification time:	28. 01. 2015 13:52

#	Program:	corina 3.48 0006  22.01.2010

@<TRIPOS>MOLECULE
16189415
  42   44    0    0    0
SMALL
NO_CHARGES


@<TRIPOS>ATOM
   1 S1            -0.0861     1.5064     0.0795 S.o2    
   2 O2             0.0383     0.0908     0.0845 O.2     
   3 O3             1.0286     2.3848     0.1511 O.2     
   4 O4            -4.4230    -0.9657     5.2193 O.2     
   5 O5            -4.4827     2.7646     6.6360 O.2     
   6 N6            -0.9027     1.8992    -1.3066 N.am    
   7 N7            -3.5391     0.2289     3.6013 N.am    
   8 N8            -3.5835     2.9701     4.6421 N.am    
   9 C9            -1.1324     1.9187     1.4359 C.ar    
  10 C10           -2.7666     1.2649     3.0851 C.ar    
  11 C11           -2.7877     2.5600     3.5766 C.ar    
  12 C12           -1.9315     0.9537     2.0094 C.ar    
  13 C13           -1.1539     3.2118     1.9263 C.ar    
  14 C14           -1.9736     3.5301     2.9871 C.ar    
  15 C15           -2.1005     1.2521    -1.6187 C.ar    
  16 C16           -4.3779     1.3440    -2.3643 C.ar    
  17 C17           -3.2065     0.9083     5.9567 C.3     
  18 C18           -3.1953     1.9869    -2.0562 C.ar    
  19 C19           -3.7613    -0.0031     4.8927 C.2     
  20 C20           -3.7980     2.2802     5.7597 C.2     
  21 C21           -5.5658     2.1402    -2.8395 C.3     
  22 C22           -2.1980    -0.1281    -1.4978 C.ar    
  23 C23           -4.4731    -0.0300    -2.2378 C.ar    
  24 C24           -3.3838    -0.7649    -1.8077 C.ar    
  25 C25           -5.5271     2.2530    -4.3648 C.3     
  26 H26           -1.9123    -0.0545     1.6226 H       
  27 H27           -0.5296     3.9707     1.4783 H       
  28 H28           -0.5491     2.5786    -1.9018 H       
  29 H29           -1.9871     4.5411     3.3669 H       
  30 H30           -3.9546    -0.3737     2.9648 H       
  31 H31           -4.0190     3.8332     4.5635 H       
  32 H32           -3.4768     0.5297     6.9425 H       
  33 H33           -2.1214     0.9599     5.8672 H       
  34 H34           -3.1217     3.0599    -2.1549 H       
  35 H35           -6.4846     1.6386    -2.5354 H       
  36 H36           -5.5340     3.1374    -2.4005 H       
  37 H37           -1.3474    -0.7028    -1.1622 H       
  38 H38           -5.3993    -0.5304    -2.4791 H       
  39 H39           -3.4602    -1.8382    -1.7142 H       
  40 H40           -6.3864     2.8289    -4.7085 H       
  41 H41           -4.6084     2.7546    -4.6689 H       
  42 H42           -5.5590     1.2558    -4.8038 H       
@<TRIPOS>BOND
   1    1    2 2
   2    1    3 2
   3    1    6 am
   4    1    9 1
   5    4   19 2
   6    5   20 2
   7    6   15 1
   8    6   28 1
   9    7   10 1
  10    7   19 am
  11    7   30 1
  12    8   11 1
  13    8   20 am
  14    8   31 1
  15    9   12 ar
  16    9   13 ar
  17   10   11 ar
  18   10   12 ar
  19   11   14 ar
  20   12   26 1
  21   13   14 ar
  22   13   27 1
  23   14   29 1
  24   15   18 ar
  25   15   22 ar
  26   16   18 ar
  27   16   21 1
  28   16   23 ar
  29   17   19 1
  30   17   20 1
  31   17   32 1
  32   17   33 1
  33   18   34 1
  34   21   25 1
  35   21   35 1
  36   21   36 1
  37   22   24 ar
  38   22   37 1
  39   23   24 ar
  40   23   38 1
  41   24   39 1
  42   25   40 1
  43   25   41 1
  44   25   42 1

#	End of record

#	Name: 16189406
#	Creating user name:	landrgr1
#	Creation time:	28. 01. 2015 13:52

#	Modifying user name:	landrgr1
#	Modification time:	28. 01. 2015 13:52

#	Program:	corina 3.48 0006  22.01.2010

@<TRIPOS>MOLECULE
16189406
  47   49    0    0    0
SMALL
NO_CHARGES


@<TRIPOS>ATOM
   1 S1            -0.0218     1.7546     0.0117 S.3     
   2 O2            -6.0656    -1.7247     4.5087 O.2     
   3 O3            -3.3160    -2.4220     0.7243 O.2     
   4 O4            -2.3233    -9.4890     8.6711 O.3     
   5 N5            -4.6838    -3.4613     4.4550 N.am    
   6 N6            -4.1518    -4.5827     5.0972 N.2     
   7 N7            -1.5998    -1.1843     1.3913 N.am    
   8 C8            -5.8842    -4.4094     6.8060 C.3     
   9 C9            -5.8732    -2.9068     6.5468 C.3     
  10 C10           -4.6663    -5.0445     6.1891 C.2     
  11 C11           -4.3013    -3.1665     3.0719 C.3     
  12 C12           -5.5494    -2.6526     5.0954 C.2     
  13 C13           -3.0633    -2.2675     3.0657 C.3     
  14 C14           -4.0501    -6.2140     6.8418 C.ar    
  15 C15           -2.6698    -1.9642     1.6429 C.2     
  16 C16           -2.9198    -6.8147     6.2813 C.ar    
  17 C17           -4.5912    -6.7215     8.0261 C.ar    
  18 C18           -1.2174    -0.8895     0.0081 C.3     
  19 C19           -2.3469    -7.9074     6.8952 C.ar    
  20 C20           -4.0116    -7.8145     8.6330 C.ar    
  21 C21           -2.8913    -8.4117     8.0694 C.ar    
  22 C22            0.0021    -0.0041     0.0020 C.2     
  23 C23            1.2646    -0.4342    -0.0123 C.2     
  24 C24            2.2216     0.5659    -0.0161 C.2     
  25 C25            1.7362     1.8083    -0.0048 C.2     
  26 C26           -2.9338    -9.9561     9.8758 C.3     
  27 H27           -5.8890    -4.5920     7.8806 H       
  28 H28           -6.7771    -4.8478     6.3603 H       
  29 H29           -6.8513    -2.4889     6.7852 H       
  30 H30           -5.1128    -2.4353     7.1694 H       
  31 H31           -4.0772    -4.0971     2.5506 H       
  32 H32           -5.1229    -2.6568     2.5685 H       
  33 H33           -3.2874    -1.3368     3.5869 H       
  34 H34           -2.2417    -2.7771     3.5691 H       
  35 H35           -2.4960    -6.4235     5.3682 H       
  36 H36           -5.4620    -6.2576     8.4652 H       
  37 H37           -1.0830    -0.8182     2.1259 H       
  38 H38           -0.9932    -1.8202    -0.5131 H       
  39 H39           -2.0389    -0.3799    -0.4953 H       
  40 H40           -1.4736    -8.3726     6.4626 H       
  41 H41           -4.4289    -8.2072     9.5484 H       
  42 H42            1.5208    -1.4834    -0.0201 H       
  43 H43            3.2810     0.3563    -0.0270 H       
  44 H44            2.3315     2.7094    -0.0060 H       
  45 H45           -2.3831   -10.8184    10.2515 H       
  46 H46           -2.9189    -9.1620    10.6222 H       
  47 H47           -3.9652   -10.2442     9.6723 H       
@<TRIPOS>BOND
   1    1   22 1
   2    1   25 1
   3    2   12 2
   4    3   15 2
   5    4   21 1
   6    4   26 1
   7    5    6 1
   8    5   11 1
   9    5   12 am
  10    6   10 2
  11    7   15 am
  12    7   18 1
  13    7   37 1
  14    8    9 1
  15    8   10 1
  16    8   27 1
  17    8   28 1
  18    9   12 1
  19    9   29 1
  20    9   30 1
  21   10   14 1
  22   11   13 1
  23   11   31 1
  24   11   32 1
  25   13   15 1
  26   13   33 1
  27   13   34 1
  28   14   16 ar
  29   14   17 ar
  30   16   19 ar
  31   16   35 1
  32   17   20 ar
  33   17   36 1
  34   18   22 1
  35   18   38 1
  36   18   39 1
  37   19   21 ar
  38   19   40 1
  39   20   21 ar
  40   20   41 1
  41   22   23 2
  42   23   24 1
  43   23   42 1
  44   24   25 2
  45   24   43 1
  46   25   44 1
  47   26   45 1
  48   26   46 1
  49   26   47 1

#	End of record

#	Name: 16189402
#	Creating user name:	landrgr1
#	Creation time:	28. 01. 2015 13:52

#	Modifying user name:	landrgr1
#	Modification time:	28. 01. 2015 13:52

#	Program:	corina 3.48 0006  22.01.2010

@<TRIPOS>MOLECULE
16189402
  66   69    0    0    0
SMALL
NO_CHARGES


@<TRIPOS>ATOM
   1 Cl1            4.2297     5.6844    -7.2520 Cl      
   2 S2            -1.9742     7.9907    -0.3154 S.2     
   3 F3            -7.8335     6.4367     3.5327 F       
   4 F4            -8.0866     7.7133     1.6551 F       
   5 F5            -7.5476     8.7006     3.6435 F       
   6 N6            -2.4546     1.0475    -1.3007 N.3     
   7 N7            -2.2753     5.8983    -1.9235 N.am    
   8 N8            -0.9232     8.5115    -4.1588 N.pl3   
   9 N9            -3.7708     6.0425    -0.1368 N.am    
  10 C10           -3.1805    -0.1912    -1.6362 C.3     
  11 C11           -1.0079     0.8128    -1.4954 C.3     
  12 C12           -2.1262    -1.2457    -2.0334 C.3     
  13 C13           -0.8335    -0.7200    -1.3555 C.3     
  14 C14           -2.9212     2.1707    -2.1244 C.3     
  15 C15           -2.3339     3.4768    -1.5857 C.3     
  16 C16           -2.9194     4.6579    -2.3624 C.3     
  17 C17           -1.1406     6.4402    -2.6751 C.3     
  18 C18           -1.6368     7.4577    -3.6699 C.2     
  19 C19           -2.7268     6.5411    -0.8283 C.2     
  20 C20           -2.8634     7.4831    -4.2296 C.2     
  21 C21            0.4586     8.8447    -3.8041 C.3     
  22 C22           -1.7061     9.2007    -5.0369 C.2     
  23 C23           -2.9087     8.5934    -5.0959 C.2     
  24 C24            1.4044     8.0520    -4.6690 C.ar    
  25 C25           -4.1671     6.6445     1.0621 C.ar    
  26 C26            1.8175     8.5598    -5.8866 C.ar    
  27 C27            1.8630     6.8198    -4.2419 C.ar    
  28 C28           -5.5171     6.8001     1.3499 C.ar    
  29 C29           -3.2119     7.0827     1.9698 C.ar    
  30 C30            2.6849     7.8332    -6.6802 C.ar    
  31 C31            2.7312     6.0927    -5.0343 C.ar    
  32 C32           -5.9050     7.3947     2.5342 C.ar    
  33 C33            3.1401     6.5976    -6.2557 C.ar    
  34 C34           -3.6065     7.6767     3.1527 C.ar    
  35 C35           -4.9510     7.8352     3.4335 C.ar    
  36 C36           -7.3694     7.5644     2.8470 C.3     
  37 H37           -3.7431    -0.5377    -0.7692 H       
  38 H38           -3.8568    -0.0100    -2.4716 H       
  39 H39           -0.7006     1.1406    -2.4885 H       
  40 H40           -0.4327     1.3317    -0.7286 H       
  41 H41           -2.3954    -2.2265    -1.6415 H       
  42 H42           -2.0062    -1.2818    -3.1162 H       
  43 H43            0.0537    -1.0623    -1.8883 H       
  44 H44           -0.7951    -1.0146    -0.3068 H       
  45 H45           -2.5976     2.0246    -3.1549 H       
  46 H46           -4.0095     2.2198    -2.0888 H       
  47 H47           -2.5818     3.5781    -0.5291 H       
  48 H48           -1.2506     3.4645    -1.7052 H       
  49 H49           -3.9916     4.7195    -2.1762 H       
  50 H50           -2.7434     4.5146    -3.4286 H       
  51 H51           -0.4425     6.9160    -1.9863 H       
  52 H52           -0.6355     5.6317    -3.2036 H       
  53 H53           -3.6639     6.7814    -4.0474 H       
  54 H54            0.6276     9.9099    -3.9624 H       
  55 H55            0.6336     8.6009    -2.7562 H       
  56 H56           -1.4158    10.0848    -5.5850 H       
  57 H57           -3.7502     8.8989    -5.6999 H       
  58 H58           -4.2473     5.2663    -0.4705 H       
  59 H59            1.4621     9.5244    -6.2178 H       
  60 H60            1.5432     6.4254    -3.2887 H       
  61 H61           -6.2625     6.4566     0.6479 H       
  62 H62           -2.1615     6.9588     1.7511 H       
  63 H63            3.0070     8.2297    -7.6318 H       
  64 H64            3.0895     5.1300    -4.7005 H       
  65 H65           -2.8641     8.0177     3.8590 H       
  66 H66           -5.2570     8.3000     4.3591 H       
@<TRIPOS>BOND
   1    1   33 1
   2    2   19 2
   3    3   36 1
   4    4   36 1
   5    5   36 1
   6    6   10 1
   7    6   11 1
   8    6   14 1
   9    7   16 1
  10    7   17 1
  11    7   19 am
  12    8   18 1
  13    8   21 1
  14    8   22 1
  15    9   19 am
  16    9   25 1
  17    9   58 1
  18   10   12 1
  19   10   37 1
  20   10   38 1
  21   11   13 1
  22   11   39 1
  23   11   40 1
  24   12   13 1
  25   12   41 1
  26   12   42 1
  27   13   43 1
  28   13   44 1
  29   14   15 1
  30   14   45 1
  31   14   46 1
  32   15   16 1
  33   15   47 1
  34   15   48 1
  35   16   49 1
  36   16   50 1
  37   17   18 1
  38   17   51 1
  39   17   52 1
  40   18   20 2
  41   20   23 1
  42   20   53 1
  43   21   24 1
  44   21   54 1
  45   21   55 1
  46   22   23 2
  47   22   56 1
  48   23   57 1
  49   24   26 ar
  50   24   27 ar
  51   25   28 ar
  52   25   29 ar
  53   26   30 ar
  54   26   59 1
  55   27   31 ar
  56   27   60 1
  57   28   32 ar
  58   28   61 1
  59   29   34 ar
  60   29   62 1
  61   30   33 ar
  62   30   63 1
  63   31   33 ar
  64   31   64 1
  65   32   35 ar
  66   32   36 1
  67   34   35 ar
  68   34   65 1
  69   35   66 1

#	End of record

#	Name: 16189330
#	Creating user name:	landrgr1
#	Creation time:	28. 01. 2015 13:52

#	Modifying user name:	landrgr1
#	Modification time:	28. 01. 2015 13:52

#	Program:	corina 3.48 0006  22.01.2010

@<TRIPOS>MOLECULE
16189330
  58   60    0    0    0
SMALL
NO_CHARGES


@<TRIPOS>ATOM
   1 S1             0.1465     1.8225     0.3290 S.o2    
   2 O2             0.3235     0.4491     0.6482 O.2     
   3 O3             1.2285     2.7314     0.1797 O.2     
   4 O4            -4.1497    -2.2565    -2.3848 O.3     
   5 O5            -0.7547     4.6129     0.7343 O.2     
   6 O6             1.0403     1.5709    -3.0321 O.2     
   7 O7            -3.2300     4.0056     4.3694 O.2     
   8 O8             4.3033     2.1523    -8.0612 O.3     
   9 N9            -0.7008     1.8665    -1.0931 N.am    
  10 N10           -2.2222     2.2344     3.5042 N.am    
  11 N11           -2.0090     4.3655     2.5575 N.am    
  12 N12            0.8134     3.5512    -4.0066 N.am    
  13 C13           -0.8980     2.4933     1.5794 C.2     
  14 C14           -0.5365     2.9981    -2.0089 C.3     
  15 C15           -1.5738     0.8229    -1.4201 C.ar    
  16 C16           -1.4132     1.6969     2.5404 C.2     
  17 C17           -1.2078     3.8747     1.5903 C.2     
  18 C18           -2.9209     1.0847    -1.6325 C.ar    
  19 C19           -1.0925    -0.4743    -1.5380 C.ar    
  20 C20            0.4956     2.6545    -3.0519 C.2     
  21 C21           -1.0984     0.2232     2.5516 C.3     
  22 C22           -3.7817     0.0542    -1.9556 C.ar    
  23 C23           -1.9547    -1.5037    -1.8611 C.ar    
  24 C24           -2.5090     3.5489     3.5034 C.2     
  25 C25           -3.3011    -1.2421    -2.0675 C.ar    
  26 C26            1.6975     3.1968    -5.0341 C.ar    
  27 C27            1.7083     1.8976    -5.5238 C.ar    
  28 C28            2.5593     4.1460    -5.5671 C.ar    
  29 C29           -3.5868    -3.5663    -2.4834 C.3     
  30 C30            2.5800     1.5489    -6.5365 C.ar    
  31 C31            3.4304     3.7961    -6.5798 C.ar    
  32 C32            3.4450     2.4963    -7.0643 C.ar    
  33 C33           -4.6855    -4.5675    -2.8457 C.3     
  34 C34            5.1657     3.1779    -8.5575 C.3     
  35 H35           -1.4877     3.2125    -2.4960 H       
  36 H36           -0.2094     3.8742    -1.4490 H       
  37 H37           -3.2954     2.0939    -1.5447 H       
  38 H38           -0.0442    -0.6781    -1.3773 H       
  39 H39           -2.5956     1.6616     4.1923 H       
  40 H40           -1.6004    -0.2491     3.3960 H       
  41 H41           -1.4455    -0.2295     1.6228 H       
  42 H42           -0.0215     0.0825     2.6441 H       
  43 H43           -2.2256     5.3109     2.5718 H       
  44 H44           -4.8294     0.2576    -2.1208 H       
  45 H45           -1.5806    -2.5126    -1.9529 H       
  46 H46            0.4301     4.4419    -3.9823 H       
  47 H47            1.0355     1.1597    -5.1125 H       
  48 H48            2.5480     5.1580    -5.1900 H       
  49 H49           -2.8186    -3.5743    -3.2566 H       
  50 H50           -3.1430    -3.8439    -1.5274 H       
  51 H51            2.5885     0.5384    -6.9174 H       
  52 H52            4.1007     4.5344    -6.9945 H       
  53 H53           -5.4538    -4.5595    -2.0725 H       
  54 H54           -5.1293    -4.2899    -3.8017 H       
  55 H55           -4.2562    -5.5666    -2.9209 H       
  56 H56            4.5655     3.9955    -8.9569 H       
  57 H57            5.7923     3.5496    -7.7468 H       
  58 H58            5.7970     2.7710    -9.3474 H       
@<TRIPOS>BOND
   1    1    2 2
   2    1    3 2
   3    1    9 am
   4    1   13 1
   5    4   25 1
   6    4   29 1
   7    5   17 2
   8    6   20 2
   9    7   24 2
  10    8   32 1
  11    8   34 1
  12    9   14 1
  13    9   15 1
  14   10   16 1
  15   10   24 am
  16   10   39 1
  17   11   17 am
  18   11   24 am
  19   11   43 1
  20   12   20 am
  21   12   26 1
  22   12   46 1
  23   13   16 2
  24   13   17 1
  25   14   20 1
  26   14   35 1
  27   14   36 1
  28   15   18 ar
  29   15   19 ar
  30   16   21 1
  31   18   22 ar
  32   18   37 1
  33   19   23 ar
  34   19   38 1
  35   21   40 1
  36   21   41 1
  37   21   42 1
  38   22   25 ar
  39   22   44 1
  40   23   25 ar
  41   23   45 1
  42   26   27 ar
  43   26   28 ar
  44   27   30 ar
  45   27   47 1
  46   28   31 ar
  47   28   48 1
  48   29   33 1
  49   29   49 1
  50   29   50 1
  51   30   32 ar
  52   30   51 1
  53   31   32 ar
  54   31   52 1
  55   33   53 1
  56   33   54 1
  57   33   55 1
  58   34   56 1
  59   34   57 1
  60   34   58 1

#	End of record

#	Name: 16189291
#	Creating user name:	landrgr1
#	Creation time:	28. 01. 2015 13:52

#	Modifying user name:	landrgr1
#	Modification time:	28. 01. 2015 13:52

#	Program:	corina 3.48 0006  22.01.2010

@<TRIPOS>MOLECULE
16189291
  41   43    0    0    0
SMALL
NO_CHARGES


@<TRIPOS>ATOM
   1 S1             0.2109     1.7679    -0.5815 S.3     
   2 O2             0.8749    -1.7049    -2.3857 O.3     
   3 O3             0.7186     0.4076    -3.0154 O.2     
   4 N4             4.1045     0.9790    -0.3277 N.pl3   
   5 N5             2.7169     0.8649    -0.4309 N.2     
   6 N6             5.9982     2.0238    -0.1576 N.2     
   7 N7             6.2505     0.7620    -0.1831 N.2     
   8 N8             3.6552    -3.3211    -0.1865 N.ar    
   9 C9            -0.0089    -0.0175    -0.8149 C.3     
  10 C10           -1.4995    -0.3587    -0.7652 C.3     
  11 C11            1.9597     1.9382    -0.4499 C.2     
  12 C12            4.6901     2.2175    -0.2451 C.2     
  13 C13           -2.0409    -0.0759     0.6376 C.3     
  14 C14            0.5548    -0.4223    -2.1526 C.2     
  15 C15            5.1265     0.0774    -0.2896 C.2     
  16 C16            2.5298     3.2239    -0.3667 C.2     
  17 C17            3.8779     3.3669    -0.2659 C.2     
  18 C18            4.9996    -1.3935    -0.3545 C.ar    
  19 C19            1.4127    -2.0223    -3.6965 C.3     
  20 C20            6.1130    -2.1921    -0.6432 C.ar    
  21 C21            3.7682    -2.0102    -0.1286 C.ar    
  22 C22            5.9410    -3.5639    -0.6917 C.ar    
  23 C23            1.7154    -3.5201    -3.7745 C.3     
  24 C24            4.6867    -4.0980    -0.4558 C.ar    
  25 H25            0.5134    -0.5545    -0.0231 H       
  26 H26           -2.0363     0.2514    -1.4917 H       
  27 H27           -1.6390    -1.4133    -1.0028 H       
  28 H28           -1.9125     0.9811     0.8703 H       
  29 H29           -3.1001    -0.3305     0.6763 H       
  30 H30           -1.4959    -0.6771     1.3654 H       
  31 H31            1.8948     4.0973    -0.3838 H       
  32 H32            4.3201     4.3501    -0.2022 H       
  33 H33            0.6831    -1.7588    -4.4622 H       
  34 H34            2.3304    -1.4572    -3.8593 H       
  35 H35            7.0811    -1.7485    -0.8237 H       
  36 H36            2.9004    -1.4074     0.0951 H       
  37 H37            6.7772    -4.2113    -0.9111 H       
  38 H38            2.4451    -3.7836    -3.0088 H       
  39 H39            0.7977    -4.0852    -3.6117 H       
  40 H40            2.1192    -3.7584    -4.7585 H       
  41 H41            4.5497    -5.1687    -0.4931 H       
@<TRIPOS>BOND
   1    1    9 1
   2    1   11 1
   3    2   14 1
   4    2   19 1
   5    3   14 2
   6    4    5 1
   7    4   12 1
   8    4   15 1
   9    5   11 2
  10    6    7 1
  11    6   12 2
  12    7   15 2
  13    8   21 ar
  14    8   24 ar
  15    9   10 1
  16    9   14 1
  17    9   25 1
  18   10   13 1
  19   10   26 1
  20   10   27 1
  21   11   16 1
  22   12   17 1
  23   13   28 1
  24   13   29 1
  25   13   30 1
  26   15   18 1
  27   16   17 2
  28   16   31 1
  29   17   32 1
  30   18   20 ar
  31   18   21 ar
  32   19   23 1
  33   19   33 1
  34   19   34 1
  35   20   22 ar
  36   20   35 1
  37   21   36 1
  38   22   24 ar
  39   22   37 1
  40   23   38 1
  41   23   39 1
  42   23   40 1
  43   24   41 1

#	End of record

#	Name: 16189256
#	Creating user name:	landrgr1
#	Creation time:	28. 01. 2015 13:52

#	Modifying user name:	landrgr1
#	Modification time:	28. 01. 2015 13:52

#	Program:	corina 3.48 0006  22.01.2010

@<TRIPOS>MOLECULE
16189256
  53   54    0    0    0
SMALL
NO_CHARGES


@<TRIPOS>ATOM
   1 O1            -0.0162     1.3412     0.0094 O.3     
   2 O2            -1.2634    -2.1140     0.0028 O.3     
   3 O3             1.0602    -0.5960    -0.0113 O.2     
   4 O4            -2.3398    -0.1768     0.0234 O.2     
   5 C5             0.0021    -0.0041     0.0020 C.2     
   6 C6            -1.2816    -0.7687     0.0102 C.2     
   7 H7             0.8394     1.7919     0.0037 H       
   8 H8            -2.1189    -2.5647     0.0085 H       
   9 N9             9.2968     9.8413     9.0393 N.3     
  10 N10           11.4142     8.4235     7.7695 N.3     
  11 C11            9.3168     8.3719     9.0312 C.3     
  12 C12           10.6626    10.3837     9.0291 C.3     
  13 C13           10.0484     7.8811     7.7797 C.3     
  14 C14           11.3943     9.8930     7.7776 C.3     
  15 C15            8.5364    10.3511    10.1881 C.3     
  16 C16           12.1746     7.9137     6.6207 C.3     
  17 C17            8.7402    11.8397    10.3046 C.ar    
  18 C18           13.4726     8.6701     6.5019 C.ar    
  19 C19            8.0253    12.7010     9.4931 C.ar    
  20 C20            9.6377    12.3442    11.2267 C.ar    
  21 C21           14.6011     8.2136     7.1568 C.ar    
  22 C22           13.5362     9.8173     5.7333 C.ar    
  23 C23            8.2123    14.0663     9.6000 C.ar    
  24 C24            7.0425    12.1512     8.4917 C.3     
  25 C25            9.8247    13.7099    11.3337 C.ar    
  26 C26            9.1139    14.5707    10.5188 C.ar    
  27 C27           15.7917     8.9074     7.0478 C.ar    
  28 C28           14.7268    10.5111     5.6242 C.ar    
  29 C29           15.8540    10.0575     6.2835 C.ar    
  30 H30            9.8339     8.0103     9.9200 H       
  31 H31            8.2943     7.9943     9.0261 H       
  32 H32           10.6213    11.4729     9.0226 H       
  33 H33           11.1950    10.0450     9.9179 H       
  34 H34            9.5160     8.2198     6.8909 H       
  35 H35           10.0898     6.7919     7.7862 H       
  36 H36           12.4168    10.2705     7.7826 H       
  37 H37           10.8772    10.2545     6.8888 H       
  38 H38            7.4767    10.1396    10.0451 H       
  39 H39            8.8844     9.8643    11.0991 H       
  40 H40           12.3837     6.8537     6.7650 H       
  41 H41           11.5910     8.0483     5.7101 H       
  42 H42           10.1927    11.6717    11.8640 H       
  43 H43           14.5525     7.3150     7.7540 H       
  44 H44           12.6557    10.1713     5.2177 H       
  45 H45            7.6543    14.7390     8.9656 H       
  46 H46            6.0602    12.0651     8.9562 H       
  47 H47            6.9819    12.8231     7.6355 H       
  48 H48            7.3746    11.1677     8.1590 H       
  49 H49           10.5258    14.1041    12.0545 H       
  50 H50            9.2602    15.6375    10.6021 H       
  51 H51           16.6732     8.5511     7.5601 H       
  52 H52           14.7765    11.4072     5.0234 H       
  53 H53           16.7841    10.5998     6.1986 H       
@<TRIPOS>BOND
   1    1    5 1
   2    1    7 1
   3    2    6 1
   4    2    8 1
   5    3    5 2
   6    4    6 2
   7    5    6 1
   8    9   11 1
   9    9   12 1
  10    9   15 1
  11   10   13 1
  12   10   14 1
  13   10   16 1
  14   11   13 1
  15   11   30 1
  16   11   31 1
  17   12   14 1
  18   12   32 1
  19   12   33 1
  20   13   34 1
  21   13   35 1
  22   14   36 1
  23   14   37 1
  24   15   17 1
  25   15   38 1
  26   15   39 1
  27   16   18 1
  28   16   40 1
  29   16   41 1
  30   17   19 ar
  31   17   20 ar
  32   18   21 ar
  33   18   22 ar
  34   19   23 ar
  35   19   24 1
  36   20   25 ar
  37   20   42 1
  38   21   27 ar
  39   21   43 1
  40   22   28 ar
  41   22   44 1
  42   23   26 ar
  43   23   45 1
  44   24   46 1
  45   24   47 1
  46   24   48 1
  47   25   26 ar
  48   25   49 1
  49   26   50 1
  50   27   29 ar
  51   27   51 1
  52   28   29 ar
  53   28   52 1
  54   29   53 1

#	End of record

#	Name: 16189235
#	Creating user name:	landrgr1
#	Creation time:	28. 01. 2015 13:52

#	Modifying user name:	landrgr1
#	Modification time:	28. 01. 2015 13:52

#	Program:	corina 3.48 0006  22.01.2010

@<TRIPOS>MOLECULE
16189235
  61   63    0    0    0
SMALL
NO_CHARGES


@<TRIPOS>ATOM
   1 Cl1            0.0000     0.0000     0.0000 Cl      
   2 H2             0.0000     1.3700     0.0000 H       
   3 S3            12.5814    15.7036     9.3462 S.3     
   4 S4             6.1922     9.3437     8.3343 S.o2    
   5 O5            17.1387    18.2264     9.9526 O.3     
   6 O6            18.4589    15.8105     9.5339 O.3     
   7 O7            10.2694    14.6191     8.9960 O.2     
   8 O8             5.0000    10.0604     8.0439 O.2     
   9 O9             6.3238     8.4740     9.4504 O.2     
  10 N10           11.8448    13.0639     8.8190 N.am    
  11 N11           12.8612     9.5671     9.6316 N.3     
  12 N12           14.1090    13.7342     9.0103 N.2     
  13 N13            6.5309     8.4358     6.9915 N.am    
  14 C14           12.1879    11.6634     8.5595 C.3     
  15 C15           12.6552    11.0038     9.8585 C.3     
  16 C16           12.8483    13.9958     9.0257 C.2     
  17 C17           14.3203    15.9709     9.4457 C.ar    
  18 C18           14.9675    14.7512     9.2294 C.ar    
  19 C19           10.5527    13.4454     8.8565 C.2     
  20 C20            9.4803    12.4365     8.7279 C.ar    
  21 C21           16.4381    17.0825     9.7165 C.ar    
  22 C22           17.0974    15.8723     9.5046 C.ar    
  23 C23           15.0575    17.1274     9.6876 C.ar    
  24 C24           16.3775    14.7229     9.2635 C.ar    
  25 C25            7.4709    10.5462     8.4871 C.ar    
  26 C26            8.3323    12.7241     7.9874 C.ar    
  27 C27            9.6134    11.1897     9.3417 C.ar    
  28 C28            7.3352    11.7779     7.8715 C.ar    
  29 C29            8.6087    10.2527     9.2177 C.ar    
  30 C30           18.5076    18.0740    10.3428 C.3     
  31 C31           19.1626    17.0503     9.4058 C.3     
  32 C32           13.9746     9.3354     8.7018 C.3     
  33 C33           13.0790     8.8596    10.9004 C.3     
  34 C34            7.3527     7.2290     7.1114 C.3     
  35 C35            6.0088     8.8395     5.6835 C.3     
  36 H36           11.3108    11.1387     8.1806 H       
  37 H37           12.9872    11.6161     7.8200 H       
  38 H38           11.8985    11.1448    10.6303 H       
  39 H39           13.5918    11.4587    10.1806 H       
  40 H40           14.5471    18.0646     9.8533 H       
  41 H41           16.8976    13.7907     9.0993 H       
  42 H42            8.2250    13.6852     7.5067 H       
  43 H43           10.5012    10.9592     9.9119 H       
  44 H44            6.4445    12.0008     7.3027 H       
  45 H45            8.7084     9.2894     9.6958 H       
  46 H46           19.0225    19.0311    10.2593 H       
  47 H47           18.5592    17.7167    11.3713 H       
  48 H48           20.2068    16.9109     9.6859 H       
  49 H49           19.1017    17.4028     8.3762 H       
  50 H50           14.8892     9.7582     9.1175 H       
  51 H51           14.1054     8.2637     8.5514 H       
  52 H52           13.7554     9.8122     7.7464 H       
  53 H53           12.2087     8.9906    11.5435 H       
  54 H54           13.2288     7.7981    10.7035 H       
  55 H55           13.9611     9.2652    11.3958 H       
  56 H56            6.7105     6.3700     7.3061 H       
  57 H57            7.9015     7.0694     6.1832 H       
  58 H58            8.0575     7.3496     7.9341 H       
  59 H59            5.4251     9.7537     5.7917 H       
  60 H60            6.8390     9.0172     5.0000 H       
  61 H61            5.3737     8.0479     5.2858 H       
@<TRIPOS>BOND
   1    1    2 1
   2    3   16 1
   3    3   17 1
   4    4    8 2
   5    4    9 2
   6    4   13 am
   7    4   25 1
   8    5   21 1
   9    5   30 1
  10    6   22 1
  11    6   31 1
  12    7   19 2
  13   10   14 1
  14   10   16 1
  15   10   19 am
  16   11   15 1
  17   11   32 1
  18   11   33 1
  19   12   16 2
  20   12   18 1
  21   13   34 1
  22   13   35 1
  23   14   15 1
  24   14   36 1
  25   14   37 1
  26   15   38 1
  27   15   39 1
  28   17   18 ar
  29   17   23 ar
  30   18   24 ar
  31   19   20 1
  32   20   26 ar
  33   20   27 ar
  34   21   22 ar
  35   21   23 ar
  36   22   24 ar
  37   23   40 1
  38   24   41 1
  39   25   28 ar
  40   25   29 ar
  41   26   28 ar
  42   26   42 1
  43   27   29 ar
  44   27   43 1
  45   28   44 1
  46   29   45 1
  47   30   31 1
  48   30   46 1
  49   30   47 1
  50   31   48 1
  51   31   49 1
  52   32   50 1
  53   32   51 1
  54   32   52 1
  55   33   53 1
  56   33   54 1
  57   33   55 1
  58   34   56 1
  59   34   57 1
  60   34   58 1
  61   35   59 1
  62   35   60 1
  63   35   61 1

#	End of record

#	Name: 16188923
#	Creating user name:	landrgr1
#	Creation time:	28. 01. 2015 13:52

#	Modifying user name:	landrgr1
#	Modification time:	28. 01. 2015 13:52

#	Program:	corina 3.48 0006  22.01.2010

@<TRIPOS>MOLECULE
16188923
  52   54    0    0    0
SMALL
NO_CHARGES


@<TRIPOS>ATOM
   1 O1            -0.0161     1.3381     0.0094 O.3     
   2 O2             1.0565    -0.5939    -0.0112 O.2     
   3 N3            -3.0555    -2.6759    -1.2619 N.3     
   4 N4            -4.9930    -3.1807    -3.8368 N.pl3   
   5 N5            -5.9862    -2.4570    -4.5094 N.2     
   6 C6            -1.2926    -0.7753     0.0102 C.3     
   7 C7            -0.9938    -2.2770    -0.0007 C.3     
   8 C8            -2.1099    -0.4164    -1.2339 C.3     
   9 C9            -2.0917    -0.4220     1.2663 C.3     
  10 C10           -2.3112    -3.0539    -0.0538 C.3     
  11 C11           -3.3949    -1.2473    -1.2513 C.3     
  12 C12            0.0021    -0.0041     0.0020 C.2     
  13 C13           -2.3896     1.0786     1.2760 C.3     
  14 C14           -4.2601    -3.5021    -1.4182 C.3     
  15 C15           -3.1767     1.4265     2.5132 C.ar    
  16 C16           -5.1207    -2.9327    -2.5164 C.2     
  17 C17            1.2685     2.0148     0.0008 C.3     
  18 C18           -2.5170     1.7849     3.6739 C.ar    
  19 C19           -4.5583     1.3928     2.4856 C.ar    
  20 C20           -6.1595    -2.0806    -2.3554 C.2     
  21 C21           -3.2390     2.1039     4.8088 C.ar    
  22 C22           -5.2803     1.7119     3.6204 C.ar    
  23 C23            1.0475     3.5287     0.0110 C.3     
  24 C24           -6.6846    -1.7981    -3.6206 C.2     
  25 C25           -4.6206     2.0651     4.7827 C.ar    
  26 H26           -0.3914    -2.5218    -0.8755 H       
  27 H27           -0.4488    -2.5461     0.9041 H       
  28 H28           -2.3623     0.6437    -1.2102 H       
  29 H29           -1.5251    -0.6319    -2.1281 H       
  30 H30           -3.0289    -0.9786     1.2691 H       
  31 H31           -1.5115    -0.6830     2.1514 H       
  32 H32           -2.9071    -2.8191     0.8282 H       
  33 H33           -2.1015    -4.1233    -0.0761 H       
  34 H34           -3.9724    -1.0045    -2.1433 H       
  35 H35           -3.9858    -1.0210    -0.3637 H       
  36 H36           -1.4524     1.6351     1.2732 H       
  37 H37           -2.9698     1.3396     0.3909 H       
  38 H38           -3.9709    -4.5213    -1.6746 H       
  39 H39           -4.8206    -3.5077    -0.4833 H       
  40 H40            1.8379     1.7248     0.8838 H       
  41 H41            1.8209     1.7343    -0.8960 H       
  42 H42           -1.4377     1.8152     3.6943 H       
  43 H43           -5.0737     1.1175     1.5773 H       
  44 H44           -6.5198    -1.6884    -1.4158 H       
  45 H45           -4.3329    -3.7608    -4.2472 H       
  46 H46           -2.7236     2.3832     5.7159 H       
  47 H47           -6.3597     1.6859     3.5988 H       
  48 H48           -7.5217    -1.1481    -3.8281 H       
  49 H49            0.4951     3.8092     0.9078 H       
  50 H50            2.0118     4.0367     0.0045 H       
  51 H51            0.4781     3.8188    -0.8720 H       
  52 H52           -5.1846     2.3141     5.6694 H       
@<TRIPOS>BOND
   1    1   12 1
   2    1   17 1
   3    2   12 2
   4    3   10 1
   5    3   11 1
   6    3   14 1
   7    4    5 1
   8    4   16 1
   9    4   45 1
  10    5   24 2
  11    6    7 1
  12    6    8 1
  13    6    9 1
  14    6   12 1
  15    7   10 1
  16    7   26 1
  17    7   27 1
  18    8   11 1
  19    8   28 1
  20    8   29 1
  21    9   13 1
  22    9   30 1
  23    9   31 1
  24   10   32 1
  25   10   33 1
  26   11   34 1
  27   11   35 1
  28   13   15 1
  29   13   36 1
  30   13   37 1
  31   14   16 1
  32   14   38 1
  33   14   39 1
  34   15   18 ar
  35   15   19 ar
  36   16   20 2
  37   17   23 1
  38   17   40 1
  39   17   41 1
  40   18   21 ar
  41   18   42 1
  42   19   22 ar
  43   19   43 1
  44   20   24 1
  45   20   44 1
  46   21   25 ar
  47   21   46 1
  48   22   25 ar
  49   22   47 1
  50   23   49 1
  51   23   50 1
  52   23   51 1
  53   24   48 1
  54   25   52 1

#	End of record

#	Name: 16188865
#	Creating user name:	landrgr1
#	Creation time:	28. 01. 2015 13:52

#	Modifying user name:	landrgr1
#	Modification time:	28. 01. 2015 13:52

#	Program:	corina 3.48 0006  22.01.2010

@<TRIPOS>MOLECULE
16188865
  51   54    0    0    0
SMALL
NO_CHARGES


@<TRIPOS>ATOM
   1 S1             0.1230     1.5887    -1.0368 S.3     
   2 O2             1.8827    -1.3632     3.0526 O.2     
   3 O3             0.6243    -3.7379     0.9035 O.2     
   4 O4            -2.0797    -0.7357    -0.9166 O.2     
   5 N5             3.9425    -2.1736     3.2019 N.am    
   6 N6             1.4770    -1.7445     0.4897 N.am    
   7 N7            -0.7551    -2.2706    -0.0029 N.am    
   8 C8             3.9981    -1.8897     4.6381 C.3     
   9 C9             5.0040    -2.8299     5.3052 C.3     
  10 C10            4.4344    -0.4393     4.8547 C.3     
  11 C11            5.0621    -2.5334     6.8051 C.3     
  12 C12            4.4924    -0.1428     6.3546 C.3     
  13 C13            5.4983    -1.0830     7.0218 C.3     
  14 C14            2.8341    -1.8707     2.4976 C.2     
  15 C15            2.7769    -2.1628     1.0202 C.3     
  16 C16            1.3120    -0.4410     0.0021 C.2     
  17 C17            0.4535    -2.6130     0.4742 C.2     
  18 C18            0.0702    -0.0817    -0.4912 C.2     
  19 C19           -0.9800    -1.0342    -0.4860 C.2     
  20 C20            2.2264     0.6028    -0.0745 C.2     
  21 C21           -1.7934    -3.2116     0.0019 C.ar    
  22 C22            1.7624     1.7366    -0.5948 C.2     
  23 C23           -2.6392    -3.3086     1.0988 C.ar    
  24 C24           -1.9821    -4.0450    -1.0924 C.ar    
  25 C25           -3.8432    -5.0699     0.0118 C.ar    
  26 C26           -3.6617    -4.2371     1.1006 C.ar    
  27 C27           -3.0063    -4.9715    -1.0847 C.ar    
  28 C28           -4.9592    -6.0826     0.0174 C.3     
  29 H29            3.0121    -2.0419     5.0770 H       
  30 H30            4.6932    -3.8632     5.1509 H       
  31 H31            5.9901    -2.6776     4.8663 H       
  32 H32            5.4204    -0.2870     4.4158 H       
  33 H33            3.7178     0.2305     4.3794 H       
  34 H34            4.0760    -2.6857     7.2440 H       
  35 H35            5.7787    -3.2032     7.2804 H       
  36 H36            4.8032     0.8905     6.5090 H       
  37 H37            3.5064    -0.2951     6.7935 H       
  38 H38            5.5397    -0.8718     8.0903 H       
  39 H39            6.4844    -0.9308     6.5829 H       
  40 H40            4.7035    -2.5795     2.7580 H       
  41 H41            2.9094    -3.2321     0.8558 H       
  42 H42            3.5703    -1.6158     0.5108 H       
  43 H43            3.2462     0.5007     0.2661 H       
  44 H44            2.3492     2.6344    -0.7212 H       
  45 H45           -2.4974    -2.6589     1.9498 H       
  46 H46           -1.3288    -3.9686    -1.9490 H       
  47 H47           -4.3199    -4.3130     1.9535 H       
  48 H48           -3.1538    -5.6198    -1.9358 H       
  49 H49           -5.8585    -5.6346    -0.4055 H       
  50 H50           -4.6686    -6.9469    -0.5797 H       
  51 H51           -5.1579    -6.3986     1.0415 H       
@<TRIPOS>BOND
   1    1   18 1
   2    1   22 1
   3    2   14 2
   4    3   17 2
   5    4   19 2
   6    5    8 1
   7    5   14 am
   8    5   40 1
   9    6   15 1
  10    6   16 1
  11    6   17 am
  12    7   17 am
  13    7   19 am
  14    7   21 1
  15    8    9 1
  16    8   10 1
  17    8   29 1
  18    9   11 1
  19    9   30 1
  20    9   31 1
  21   10   12 1
  22   10   32 1
  23   10   33 1
  24   11   13 1
  25   11   34 1
  26   11   35 1
  27   12   13 1
  28   12   36 1
  29   12   37 1
  30   13   38 1
  31   13   39 1
  32   14   15 1
  33   15   41 1
  34   15   42 1
  35   16   18 2
  36   16   20 1
  37   18   19 1
  38   20   22 2
  39   20   43 1
  40   21   23 ar
  41   21   24 ar
  42   22   44 1
  43   23   26 ar
  44   23   45 1
  45   24   27 ar
  46   24   46 1
  47   25   26 ar
  48   25   27 ar
  49   25   28 1
  50   26   47 1
  51   27   48 1
  52   28   49 1
  53   28   50 1
  54   28   51 1

#	End of record

#	Name: 16188796
#	Creating user name:	landrgr1
#	Creation time:	28. 01. 2015 13:52

#	Modifying user name:	landrgr1
#	Modification time:	28. 01. 2015 13:52

#	Program:	corina 3.48 0006  22.01.2010

@<TRIPOS>MOLECULE
16188796
  66   66    0    0    0
SMALL
NO_CHARGES


@<TRIPOS>ATOM
   1 Cl1            0.0000     0.0000     0.0000 Cl      
   2 O2             8.6484    10.2238     7.2233 O.3     
   3 O3             8.7182    15.8162    10.4665 O.3     
   4 O4             8.6933    13.6546    10.9253 O.2     
   5 N5             9.3517    12.7215     8.5631 N.4     
   6 C6             7.5867     8.1517     8.0018 C.3     
   7 C7             7.3557     6.8062     7.2274 C.3     
   8 C8             7.1056     7.4629     5.8240 C.3     
   9 C9             8.7039     8.7991     7.1277 C.3     
  10 C10            6.2912     8.9305     7.6192 C.3     
  11 C11            8.3853     8.3430     5.6855 C.3     
  12 C12            5.9726     8.4744     6.1770 C.3     
  13 C13            7.8937     8.0279     9.4956 C.3     
  14 C14            8.6030     5.9200     7.2321 C.3     
  15 C15            6.1242     6.0549     7.7371 C.3     
  16 C16            9.9149    10.8667     7.0666 C.3     
  17 C17            9.7363    12.3815     7.1868 C.3     
  18 C18            9.3178    14.1822     8.7154 C.3     
  19 C19            8.0216    12.1682     8.8508 C.3     
  20 C20           10.3311    12.1542     9.4996 C.3     
  21 C21            8.8869    14.5313    10.1167 C.2     
  22 C22            8.3021    16.0783    11.8327 C.3     
  23 C23            8.1631    17.5874    12.0429 C.3     
  24 C24            7.7247    17.8635    13.4825 C.3     
  25 C25            8.8280    17.4206    14.4455 C.3     
  26 C26            7.4652    19.3611    13.6582 C.3     
  27 H27            6.9071     6.7776     5.0000 H       
  28 H28            9.6848     8.4364     7.4349 H       
  29 H29            5.4753     8.6640     8.2910 H       
  30 H30            6.4717    10.0051     7.6468 H       
  31 H31            9.2094     7.7545     5.2823 H       
  32 H32            8.1863     9.2055     5.0494 H       
  33 H33            5.9964     9.3247     5.4955 H       
  34 H34            5.0000     7.9836     6.1398 H       
  35 H35            8.8031     7.4427     9.6324 H       
  36 H36            8.0337     9.0215     9.9213 H       
  37 H37            7.0632     7.5314     9.9973 H       
  38 H38            8.8733     5.6786     8.2601 H       
  39 H39            8.3971     5.0000     6.6850 H       
  40 H40            9.4271     6.4500     6.7546 H       
  41 H41            5.2392     6.6780     7.6078 H       
  42 H42            6.0032     5.1303     7.1727 H       
  43 H43            6.2527     5.8213     8.7940 H       
  44 H44           10.5975    10.5187     7.8419 H       
  45 H45           10.3257    10.6259     6.0861 H       
  46 H46            8.9570    12.7111     6.4997 H       
  47 H47           10.6739    12.8787     6.9382 H       
  48 H48           10.3111    14.5902     8.5284 H       
  49 H49            8.6109    14.6056     8.0018 H       
  50 H50            8.0851    11.0816     8.9093 H       
  51 H51            7.6616    12.5629     9.8009 H       
  52 H52            7.3313    12.4495     8.0555 H       
  53 H53           11.3326    12.4816     9.2205 H       
  54 H54           10.1062    12.4941    10.5106 H       
  55 H55           10.2810    11.0660     9.4626 H       
  56 H56            7.3428    15.5955    12.0193 H       
  57 H57            9.0481    15.6826    12.5219 H       
  58 H58            9.1224    18.0701    11.8563 H       
  59 H59            7.4171    17.9830    11.3536 H       
  60 H60            6.8112    17.3089    13.6968 H       
  61 H61            8.5157    17.6174    15.4711 H       
  62 H62            9.0129    16.3538    14.3203 H       
  63 H63            9.7416    17.9753    14.2312 H       
  64 H64            6.6792    19.6766    12.9721 H       
  65 H65            7.1529    19.5578    14.6838 H       
  66 H66            8.3787    19.9157    13.4439 H       
@<TRIPOS>BOND
   1    2    9 1
   2    2   16 1
   3    3   21 1
   4    3   22 1
   5    4   21 2
   6    5   17 1
   7    5   18 1
   8    5   19 1
   9    5   20 1
  10    6    7 1
  11    6    9 1
  12    6   10 1
  13    6   13 1
  14    7    8 1
  15    7   14 1
  16    7   15 1
  17    8   11 1
  18    8   12 1
  19    8   27 1
  20    9   11 1
  21    9   28 1
  22   10   12 1
  23   10   29 1
  24   10   30 1
  25   11   31 1
  26   11   32 1
  27   12   33 1
  28   12   34 1
  29   13   35 1
  30   13   36 1
  31   13   37 1
  32   14   38 1
  33   14   39 1
  34   14   40 1
  35   15   41 1
  36   15   42 1
  37   15   43 1
  38   16   17 1
  39   16   44 1
  40   16   45 1
  41   17   46 1
  42   17   47 1
  43   18   21 1
  44   18   48 1
  45   18   49 1
  46   19   50 1
  47   19   51 1
  48   19   52 1
  49   20   53 1
  50   20   54 1
  51   20   55 1
  52   22   23 1
  53   22   56 1
  54   22   57 1
  55   23   24 1
  56   23   58 1
  57   23   59 1
  58   24   25 1
  59   24   26 1
  60   24   60 1
  61   25   61 1
  62   25   62 1
  63   25   63 1
  64   26   64 1
  65   26   65 1
  66   26   66 1

#	End of record

#	Name: 16188663
#	Creating user name:	landrgr1
#	Creation time:	28. 01. 2015 13:52

#	Modifying user name:	landrgr1
#	Modification time:	28. 01. 2015 13:52

#	Program:	corina 3.48 0006  22.01.2010

@<TRIPOS>MOLECULE
16188663
  52   57    0    0    0
SMALL
NO_CHARGES


@<TRIPOS>ATOM
   1 O1            -1.1850     3.3531     0.1498 O.2     
   2 N2            -0.0168     1.4721    -0.0255 N.am    
   3 N3             1.2230    -1.6181    -1.7011 N.pl3   
   4 N4             0.5682    -1.8857     1.3355 N.ar    
   5 N5            -4.5999     0.9560    -0.2687 N.pl3   
   6 N6            -2.6060     0.0749    -0.1093 N.2     
   7 C7             0.0056     0.0019    -0.1121 C.3     
   8 C8             1.0326    -0.3763    -1.1560 C.2     
   9 C9             1.9140     0.4992    -1.6855 C.2     
  10 C10            1.9957     1.9607    -1.3254 C.3     
  11 C11            1.2675     2.1881     0.0047 C.3     
  12 C12            2.7249    -0.2382    -2.6335 C.ar    
  13 C13            2.2452    -1.5731    -2.6050 C.ar    
  14 C14            0.3920    -0.5836     1.2217 C.ar    
  15 C15           -1.1841     2.1442     0.0193 C.2     
  16 C16            3.7821     0.1355    -3.4681 C.ar    
  17 C17            2.8193    -2.5501    -3.4151 C.ar    
  18 C18           -2.4614     1.4128    -0.0899 C.2     
  19 C19            0.5572     0.2500     2.3113 C.ar    
  20 C20            4.3293    -0.8483    -4.2549 C.ar    
  21 C21            3.8637    -2.1524    -4.2324 C.ar    
  22 C22           -3.7015     1.9765    -0.1890 C.2     
  23 C23            0.9129    -0.2988     3.5341 C.ar    
  24 C24           -3.8909    -0.2183    -0.2168 C.2     
  25 C25            0.9068    -2.4419     2.4820 C.ar    
  26 C26            1.0896    -1.6714     3.6150 C.ar    
  27 C27           -5.9623     0.9363    -0.3760 C.2     
  28 C28           -4.5776    -1.4503    -0.2802 C.2     
  29 C29           -6.6300    -0.2336    -0.4375 C.2     
  30 C30           -5.9319    -1.4529    -0.3918 C.2     
  31 C31           -8.1325    -0.2340    -0.5546 C.3     
  32 H32           -0.9765    -0.3665    -0.4085 H       
  33 H33            3.0408     2.2535    -1.2239 H       
  34 H34            1.5228     2.5559    -2.1066 H       
  35 H35            1.0878     3.2540     0.1447 H       
  36 H36            1.8777     1.8086     0.8243 H       
  37 H37            0.7092    -2.4102    -1.4785 H       
  38 H38            4.1511     1.1502    -3.4934 H       
  39 H39            2.4659    -3.5706    -3.4064 H       
  40 H40            0.4116     1.3154     2.2117 H       
  41 H41            5.1478    -0.5967    -4.9130 H       
  42 H42            4.3323    -2.8846    -4.8734 H       
  43 H43           -3.9271     3.0326    -0.2021 H       
  44 H44            1.0492     0.3282     4.4028 H       
  45 H45            1.0419    -3.5120     2.5368 H       
  46 H46            1.3670    -2.1329     4.5512 H       
  47 H47           -6.5094     1.8668    -0.4115 H       
  48 H48           -4.0318    -2.3814    -0.2407 H       
  49 H49           -6.4700    -2.3880    -0.4416 H       
  50 H50           -8.4148    -0.2258    -1.6074 H       
  51 H51           -8.5339    -1.1282    -0.0777 H       
  52 H52           -8.5354     0.6517    -0.0635 H       
@<TRIPOS>BOND
   1    1   15 2
   2    2    7 1
   3    2   11 1
   4    2   15 am
   5    3    8 1
   6    3   13 1
   7    3   37 1
   8    4   14 ar
   9    4   25 ar
  10    5   22 1
  11    5   24 1
  12    5   27 1
  13    6   18 1
  14    6   24 2
  15    7    8 1
  16    7   14 1
  17    7   32 1
  18    8    9 2
  19    9   10 1
  20    9   12 1
  21   10   11 1
  22   10   33 1
  23   10   34 1
  24   11   35 1
  25   11   36 1
  26   12   13 ar
  27   12   16 ar
  28   13   17 ar
  29   14   19 ar
  30   15   18 1
  31   16   20 ar
  32   16   38 1
  33   17   21 ar
  34   17   39 1
  35   18   22 2
  36   19   23 ar
  37   19   40 1
  38   20   21 ar
  39   20   41 1
  40   21   42 1
  41   22   43 1
  42   23   26 ar
  43   23   44 1
  44   24   28 1
  45   25   26 ar
  46   25   45 1
  47   26   46 1
  48   27   29 2
  49   27   47 1
  50   28   30 2
  51   28   48 1
  52   29   30 1
  53   29   31 1
  54   30   49 1
  55   31   50 1
  56   31   51 1
  57   31   52 1

#	End of record

#	Name: 16188641
#	Creating user name:	landrgr1
#	Creation time:	28. 01. 2015 13:52

#	Modifying user name:	landrgr1
#	Modification time:	28. 01. 2015 13:52

#	Program:	corina 3.48 0006  22.01.2010

@<TRIPOS>MOLECULE
16188641
  51   53    0    0    0
SMALL
NO_CHARGES


@<TRIPOS>ATOM
   1 O1            -0.0173     1.4248     0.0099 O.3     
   2 O2            -4.6781    -4.9155     1.3809 O.3     
   3 O3            -6.6998    -7.2240     2.4989 O.3     
   4 N4            -2.7905    -2.5727     0.0411 N.3     
   5 C5            -1.4333    -0.5336     0.0129 C.3     
   6 C6            -2.1507    -0.0403     1.2724 C.3     
   7 C7            -1.4134    -2.0639     0.0094 C.3     
   8 C8            -3.5661    -0.6233     1.3056 C.3     
   9 C9            -2.1740    -0.0297    -1.2274 C.3     
  10 C10           -3.4844    -2.1510     1.2647 C.3     
  11 C11            0.0021    -0.0041     0.0020 C.3     
  12 C12           -2.8150    -4.0346    -0.1007 C.3     
  13 C13           -2.1974     1.4772    -1.2208 C.ar    
  14 C14           -4.2055    -4.5433     0.1801 C.2     
  15 C15           -1.1771     2.1869    -1.8259 C.ar    
  16 C16           -3.2420     2.1495    -0.6146 C.ar    
  17 C17           -5.1836    -4.7022    -0.7295 C.2     
  18 C18           -1.1985     3.5691    -1.8198 C.ar    
  19 C19           -3.2635     3.5317    -0.6085 C.ar    
  20 C20           -5.9545    -5.3140     1.2558 C.2     
  21 C21           -6.3111    -5.1990    -0.0361 C.2     
  22 C22           -2.2405     4.2415    -1.2090 C.ar    
  23 C23           -6.8373    -5.8071     2.3732 C.3     
  24 C24           -7.4994    -7.7958     3.5361 C.3     
  25 H25           -1.6016    -0.3664     2.1557 H       
  26 H26           -2.2054     1.0483     1.2577 H       
  27 H27           -0.8736    -2.4220     0.8861 H       
  28 H28           -0.9158    -2.4186    -0.8932 H       
  29 H29           -4.0674    -0.3102     2.2214 H       
  30 H30           -4.1274    -0.2657     0.4423 H       
  31 H31           -1.6629    -0.3812    -2.1237 H       
  32 H32           -3.1958    -0.4089    -1.2195 H       
  33 H33           -4.4910    -2.5689     1.2737 H       
  34 H34           -2.9349    -2.5087     2.1354 H       
  35 H35            0.5123    -0.3556    -0.8948 H       
  36 H36            0.5293    -0.3651     0.8851 H       
  37 H37           -2.5270    -4.3060    -1.1164 H       
  38 H38           -2.1154    -4.4801     0.6066 H       
  39 H39            0.8606     1.8301     0.0037 H       
  40 H40           -0.3630     1.6616    -2.3031 H       
  41 H41           -4.0416     1.5950    -0.1460 H       
  42 H42           -5.1200    -4.4905    -1.7867 H       
  43 H43           -0.4011     4.1236    -2.2919 H       
  44 H44           -4.0799     4.0570    -0.1352 H       
  45 H45           -7.2740    -5.4396    -0.4618 H       
  46 H46           -2.2571     5.3213    -1.2039 H       
  47 H47           -7.8757    -5.5611     2.1514 H       
  48 H48           -6.5421    -5.3292     3.3073 H       
  49 H49           -7.2180    -7.3591     4.4943 H       
  50 H50           -8.5516    -7.5910     3.3384 H       
  51 H51           -7.3385    -8.8734     3.5666 H       
@<TRIPOS>BOND
   1    1   11 1
   2    1   39 1
   3    2   14 1
   4    2   20 1
   5    3   23 1
   6    3   24 1
   7    4    7 1
   8    4   10 1
   9    4   12 1
  10    5    6 1
  11    5    7 1
  12    5    9 1
  13    5   11 1
  14    6    8 1
  15    6   25 1
  16    6   26 1
  17    7   27 1
  18    7   28 1
  19    8   10 1
  20    8   29 1
  21    8   30 1
  22    9   13 1
  23    9   31 1
  24    9   32 1
  25   10   33 1
  26   10   34 1
  27   11   35 1
  28   11   36 1
  29   12   14 1
  30   12   37 1
  31   12   38 1
  32   13   15 ar
  33   13   16 ar
  34   14   17 2
  35   15   18 ar
  36   15   40 1
  37   16   19 ar
  38   16   41 1
  39   17   21 1
  40   17   42 1
  41   18   22 ar
  42   18   43 1
  43   19   22 ar
  44   19   44 1
  45   20   21 2
  46   20   23 1
  47   21   45 1
  48   22   46 1
  49   23   47 1
  50   23   48 1
  51   24   49 1
  52   24   50 1
  53   24   51 1

#	End of record

#	Name: 16188600
#	Creating user name:	landrgr1
#	Creation time:	28. 01. 2015 13:52

#	Modifying user name:	landrgr1
#	Modification time:	28. 01. 2015 13:52

#	Program:	corina 3.48 0006  22.01.2010

@<TRIPOS>MOLECULE
16188600
  39   40    0    0    0
SMALL
NO_CHARGES


@<TRIPOS>ATOM
   1 S1             1.6333    -2.0742     0.5972 S.2     
   2 N2            -0.0015     1.3380    -0.2502 N.3     
   3 N3             2.1472     0.5492     0.1703 N.am    
   4 N4             0.0021    -0.0041     0.0020 N.am    
   5 C5             1.4047     1.7776    -0.1543 C.3     
   6 C6             1.8782     2.3518    -1.4911 C.3     
   7 C7             3.3359     2.7995    -1.3661 C.3     
   8 C8             1.5672     2.8118     0.9615 C.3     
   9 C9             3.8095     3.3737    -2.7029 C.3     
  10 C10            1.2438    -0.4453     0.2423 C.2     
  11 C11            5.2671     3.8215    -2.5779 C.3     
  12 C12           -1.1403    -0.8115     0.0090 C.ar    
  13 C13            5.7407     4.3956    -3.9147 C.3     
  14 C14           -1.1473    -2.0134    -0.6868 C.ar    
  15 C15           -2.2680    -0.4155     0.7164 C.ar    
  16 C16           -2.2767    -2.8082    -0.6779 C.ar    
  17 C17           -3.3942    -1.2149     0.7213 C.ar    
  18 C18           -3.3998    -2.4083     0.0228 C.ar    
  19 H19            1.7980     1.5872    -2.2638 H       
  20 H20            1.2574     3.2064    -1.7598 H       
  21 H21            3.4161     3.5642    -0.5934 H       
  22 H22            3.9567     1.9449    -1.0974 H       
  23 H23           -0.3798     1.5330    -1.1651 H       
  24 H24            3.1045     0.4714     0.3063 H       
  25 H25            1.2566     2.3745     1.9103 H       
  26 H26            2.6120     3.1155     1.0261 H       
  27 H27            0.9487     3.6824     0.7429 H       
  28 H28            3.7292     2.6091    -3.4756 H       
  29 H29            3.1886     4.2283    -2.9716 H       
  30 H30            5.3474     4.5861    -1.8052 H       
  31 H31            5.8880     2.9668    -2.3092 H       
  32 H32            5.6604     3.6310    -4.6874 H       
  33 H33            5.1198     5.2503    -4.1834 H       
  34 H34            6.7791     4.7146    -3.8257 H       
  35 H35           -0.2705    -2.3260    -1.2345 H       
  36 H36           -2.2640     0.5163     1.2625 H       
  37 H37           -2.2829    -3.7428    -1.2191 H       
  38 H38           -4.2714    -0.9076     1.2712 H       
  39 H39           -4.2818    -3.0317     0.0282 H       
@<TRIPOS>BOND
   1    1   10 2
   2    2    4 1
   3    2    5 1
   4    2   23 1
   5    3    5 1
   6    3   10 am
   7    3   24 1
   8    4   10 am
   9    4   12 1
  10    5    6 1
  11    5    8 1
  12    6    7 1
  13    6   19 1
  14    6   20 1
  15    7    9 1
  16    7   21 1
  17    7   22 1
  18    8   25 1
  19    8   26 1
  20    8   27 1
  21    9   11 1
  22    9   28 1
  23    9   29 1
  24   11   13 1
  25   11   30 1
  26   11   31 1
  27   12   14 ar
  28   12   15 ar
  29   13   32 1
  30   13   33 1
  31   13   34 1
  32   14   16 ar
  33   14   35 1
  34   15   17 ar
  35   15   36 1
  36   16   18 ar
  37   16   37 1
  38   17   18 ar
  39   17   38 1
  40   18   39 1

#	End of record

#	Name: 16188599
#	Creating user name:	landrgr1
#	Creation time:	28. 01. 2015 13:52

#	Modifying user name:	landrgr1
#	Modification time:	28. 01. 2015 13:52

#	Program:	corina 3.48 0006  22.01.2010

@<TRIPOS>MOLECULE
16188599
  43   45    0    0    0
SMALL
NO_CHARGES


@<TRIPOS>ATOM
   1 I1             0.0000     0.0000     0.0000 I       
   2 N2             7.0959     9.5804     7.3338 N.ar    
   3 N3            14.2185    10.0559     6.7565 N.pl3   
   4 C4             9.5948     8.3697     7.5236 C.ar    
   5 C5             8.4520     7.8769     8.3031 C.ar    
   6 C6            12.0111     8.5292     7.5028 C.2     
   7 C7            13.3546     7.9131     7.4380 C.ar    
   8 C8             7.2076     8.5351     8.1625 C.ar    
   9 C9            14.4374     8.7243     7.0589 C.ar    
  10 C10           10.8676     7.7606     7.6144 C.2     
  11 C11            9.3685     9.4716     6.6853 C.ar    
  12 C12           11.9485     9.9973     7.4425 C.2     
  13 C13            8.1073    10.0347     6.6295 C.ar    
  14 C14           13.0478    10.6830     7.0779 C.2     
  15 C15            8.5702     6.7871     9.1671 C.ar    
  16 C16           13.5566     6.5710     7.7415 C.ar    
  17 C17            6.1066     8.0737     8.9024 C.ar    
  18 C18           15.7109     8.1734     6.9935 C.ar    
  19 C19            5.7941    10.2394     7.2029 C.3     
  20 C20           15.2720    10.8160     6.0792 C.3     
  21 C21            7.4797     6.3645     9.8721 C.ar    
  22 C22           14.8290     6.0415     7.6690 C.ar    
  23 C23            6.2534     7.0071     9.7380 C.ar    
  24 C24           15.8990     6.8405     7.2978 C.ar    
  25 H25           10.9463     6.6949     7.7709 H       
  26 H26           10.1727     9.8766     6.0890 H       
  27 H27           11.0343    10.5175     7.6875 H       
  28 H28            7.9468    10.8825     5.9800 H       
  29 H29           13.0032    11.7613     7.0385 H       
  30 H30            9.5179     6.2809     9.2768 H       
  31 H31           12.7238     5.9477     8.0321 H       
  32 H32            5.1479     8.5623     8.8099 H       
  33 H33           16.5518     8.7865     6.7048 H       
  34 H34            5.7158    11.0388     7.9397 H       
  35 H35            5.6978    10.6579     6.2010 H       
  36 H36            5.0000     9.5118     7.3705 H       
  37 H37           15.1429    10.7334     5.0000 H       
  38 H38           15.2105    11.8637     6.3733 H       
  39 H39           16.2463    10.4162     6.3602 H       
  40 H40            7.5702     5.5211    10.5406 H       
  41 H41           14.9919     5.0000     7.9038 H       
  42 H42            5.4042     6.6554    10.3051 H       
  43 H43           16.8904     6.4153     7.2456 H       
@<TRIPOS>BOND
   1    2    8 ar
   2    2   13 ar
   3    2   19 1
   4    3    9 1
   5    3   14 1
   6    3   20 1
   7    4    5 ar
   8    4   10 1
   9    4   11 ar
  10    5    8 ar
  11    5   15 ar
  12    6    7 1
  13    6   10 2
  14    6   12 1
  15    7    9 ar
  16    7   16 ar
  17    8   17 ar
  18    9   18 ar
  19   10   25 1
  20   11   13 ar
  21   11   26 1
  22   12   14 2
  23   12   27 1
  24   13   28 1
  25   14   29 1
  26   15   21 ar
  27   15   30 1
  28   16   22 ar
  29   16   31 1
  30   17   23 ar
  31   17   32 1
  32   18   24 ar
  33   18   33 1
  34   19   34 1
  35   19   35 1
  36   19   36 1
  37   20   37 1
  38   20   38 1
  39   20   39 1
  40   21   23 ar
  41   21   40 1
  42   22   24 ar
  43   22   41 1
  44   23   42 1
  45   24   43 1

#	End of record

#	Name: 16188432
#	Creating user name:	landrgr1
#	Creation time:	28. 01. 2015 13:52

#	Modifying user name:	landrgr1
#	Modification time:	28. 01. 2015 13:52

#	Program:	corina 3.48 0006  22.01.2010

@<TRIPOS>MOLECULE
16188432
  28   30    0    0    0
SMALL
NO_CHARGES


@<TRIPOS>ATOM
   1 O1             2.1355     1.9628     0.1725 O.2     
   2 N2            -0.0168     1.3864     0.0097 N.am    
   3 N3            -1.7439     3.0036     0.1554 N.2     
   4 N4             0.0021    -0.0041     0.0020 N.pl3   
   5 N5            -2.0882     0.6506    -0.1527 N.2     
   6 N6            -1.7164    -1.7034    -0.2732 N.pl3   
   7 C7            -0.7463     4.0350     0.4530 C.3     
   8 C8             0.5909     3.7368    -0.2187 C.3     
   9 C9            -1.2554     5.3668    -0.0351 C.ar    
  10 C10            0.9801     2.2907     0.0050 C.2     
  11 C11           -1.3616     1.7632     0.0009 C.2     
  12 C12           -1.0532     6.5043     0.7238 C.ar    
  13 C13           -1.9196     5.4517    -1.2444 C.ar    
  14 C14           -1.3002    -0.4077    -0.1480 C.2     
  15 C15           -1.5202     7.7259     0.2761 C.ar    
  16 C16           -2.3866     6.6733    -1.6922 C.ar    
  17 C17           -2.1891     7.8100    -0.9308 C.ar    
  18 H18           -0.5986     4.0860     1.5318 H       
  19 H19            0.5074     3.9266    -1.2888 H       
  20 H20            1.3587     4.3863     0.2016 H       
  21 H21            0.7816    -0.5752     0.0856 H       
  22 H22           -0.5307     6.4386     1.6667 H       
  23 H23           -2.0734     4.5637    -1.8396 H       
  24 H24           -1.3629     8.6146     0.8694 H       
  25 H25           -2.9052     6.7397    -2.6372 H       
  26 H26           -2.5542     8.7644    -1.2804 H       
  27 H27           -1.0680    -2.4247    -0.2595 H       
  28 H28           -2.6604    -1.9018    -0.3758 H       
@<TRIPOS>BOND
   1    1   10 2
   2    2    4 1
   3    2   10 am
   4    2   11 1
   5    3    7 1
   6    3   11 2
   7    4   14 1
   8    4   21 1
   9    5   11 1
  10    5   14 2
  11    6   14 1
  12    6   27 1
  13    6   28 1
  14    7    8 1
  15    7    9 1
  16    7   18 1
  17    8   10 1
  18    8   19 1
  19    8   20 1
  20    9   12 ar
  21    9   13 ar
  22   12   15 ar
  23   12   22 1
  24   13   16 ar
  25   13   23 1
  26   15   17 ar
  27   15   24 1
  28   16   17 ar
  29   16   25 1
  30   17   26 1

#	End of record

#	Name: 16188395
#	Creating user name:	landrgr1
#	Creation time:	28. 01. 2015 13:52

#	Modifying user name:	landrgr1
#	Modification time:	28. 01. 2015 13:52

#	Program:	corina 3.48 0006  22.01.2010

@<TRIPOS>MOLECULE
16188395
  57   59    0    0    0
SMALL
NO_CHARGES


@<TRIPOS>ATOM
   1 O1            -0.0173     1.4248     0.0099 O.3     
   2 O2             5.3273    -3.3292     5.9572 O.3     
   3 O3             5.7157    -1.1710     6.2305 O.2     
   4 O4             3.3967    -6.7989     2.4000 O.3     
   5 N5             2.8016    -0.3468     2.5378 N.3     
   6 C6             4.7415    -1.7391     4.1617 C.3     
   7 C7             4.8227    -0.2298     3.9168 C.3     
   8 C8             3.2775    -2.1819     4.0891 C.3     
   9 C9             2.1334     0.0727     1.2986 C.3     
  10 C10            4.2017     0.0955     2.5564 C.3     
  11 C11            2.7013    -1.8000     2.7237 C.3     
  12 C12            5.5519    -2.4749     3.0927 C.3     
  13 C13            0.7175    -0.5102     1.2573 C.3     
  14 C14            2.0458     1.6014     1.2560 C.3     
  15 C15            5.2972    -2.0586     5.5255 C.2     
  16 C16            0.0021    -0.0041     0.0020 C.3     
  17 C17            1.2791     2.0260     0.0007 C.3     
  18 C18            5.4711    -3.9601     3.3348 C.ar    
  19 C19            4.4622    -4.7006     2.7505 C.ar    
  20 C20            6.4106    -4.5813     4.1372 C.ar    
  21 C21            5.8762    -3.5629     7.2810 C.3     
  22 C22            4.3887    -6.0682     2.9734 C.ar    
  23 C23            6.3395    -5.9437     4.3609 C.ar    
  24 C24            5.3292    -6.6881     3.7830 C.ar    
  25 C25            5.8274    -5.0592     7.5964 C.3     
  26 C26            3.3830    -8.2014     2.6735 C.3     
  27 H27            4.2777     0.2960     4.7007 H       
  28 H28            5.8664     0.0846     3.9249 H       
  29 H29            3.2172    -3.2623     4.2202 H       
  30 H30            2.7081    -1.6869     4.8757 H       
  31 H31            2.7004    -0.2855     0.4394 H       
  32 H32            4.7558    -0.4196     1.7717 H       
  33 H33            4.2451     1.1711     2.3853 H       
  34 H34            1.6549    -2.1012     2.6740 H       
  35 H35            3.2624    -2.3062     1.9382 H       
  36 H36            5.1468    -2.2448     2.1072 H       
  37 H37            6.5927    -2.1548     3.1414 H       
  38 H38            0.7722    -1.5985     1.2315 H       
  39 H39            0.1670    -0.1932     2.1431 H       
  40 H40            1.5222     1.9611     2.1417 H       
  41 H41            3.0505     2.0232     1.2292 H       
  42 H42           -1.0204    -0.3814    -0.0107 H       
  43 H43            0.5305    -0.3556    -0.8842 H       
  44 H44            1.8242     1.7010    -0.8855 H       
  45 H45            1.1765     3.1110    -0.0129 H       
  46 H46            3.7310    -4.2156     2.1209 H       
  47 H47            7.2013    -4.0013     4.5896 H       
  48 H48            6.9100    -3.2187     7.3116 H       
  49 H49            5.2893    -3.0166     8.0193 H       
  50 H50            7.0744    -6.4266     4.9879 H       
  51 H51            5.2740    -7.7524     3.9580 H       
  52 H52            6.4143    -5.6056     6.8581 H       
  53 H53            6.2395    -5.2347     8.5902 H       
  54 H54            4.7937    -5.4035     7.5658 H       
  55 H55            4.3144    -8.6485     2.3260 H       
  56 H56            3.2815    -8.3613     3.7469 H       
  57 H57            2.5426    -8.6643     2.1562 H       
@<TRIPOS>BOND
   1    1   16 1
   2    1   17 1
   3    2   15 1
   4    2   21 1
   5    3   15 2
   6    4   22 1
   7    4   26 1
   8    5    9 1
   9    5   10 1
  10    5   11 1
  11    6    7 1
  12    6    8 1
  13    6   12 1
  14    6   15 1
  15    7   10 1
  16    7   27 1
  17    7   28 1
  18    8   11 1
  19    8   29 1
  20    8   30 1
  21    9   13 1
  22    9   14 1
  23    9   31 1
  24   10   32 1
  25   10   33 1
  26   11   34 1
  27   11   35 1
  28   12   18 1
  29   12   36 1
  30   12   37 1
  31   13   16 1
  32   13   38 1
  33   13   39 1
  34   14   17 1
  35   14   40 1
  36   14   41 1
  37   16   42 1
  38   16   43 1
  39   17   44 1
  40   17   45 1
  41   18   19 ar
  42   18   20 ar
  43   19   22 ar
  44   19   46 1
  45   20   23 ar
  46   20   47 1
  47   21   25 1
  48   21   48 1
  49   21   49 1
  50   22   24 ar
  51   23   24 ar
  52   23   50 1
  53   24   51 1
  54   25   52 1
  55   25   53 1
  56   25   54 1
  57   26   55 1
  58   26   56 1
  59   26   57 1

#	End of record

#	Name: 16188380
#	Creating user name:	landrgr1
#	Creation time:	28. 01. 2015 13:52

#	Modifying user name:	landrgr1
#	Modification time:	28. 01. 2015 13:52

#	Program:	corina 3.48 0006  22.01.2010

@<TRIPOS>MOLECULE
16188380
  57   60    0    0    0
SMALL
NO_CHARGES


@<TRIPOS>ATOM
   1 O1            -1.5554     0.8925    -1.9599 O.3     
   2 O2             1.5740    -4.7475     2.1655 O.3     
   3 O3            -4.0308    -7.5223     3.4073 O.3     
   4 N4            -0.7202    -2.6460     1.2674 N.3     
   5 N5            -2.9133    -4.1623     0.2688 N.3     
   6 N6            -4.0696    -6.4921     2.7650 N.2     
   7 N7            -4.1522    -8.5538     2.7774 N.2     
   8 C8            -1.3269    -2.3219    -0.0313 C.3     
   9 C9            -2.8033    -2.7249    -0.0165 C.3     
  10 C10           -0.8302    -4.0834     1.5527 C.3     
  11 C11           -2.3066    -4.4864     1.5675 C.3     
  12 C12           -1.2107    -0.8180    -0.2878 C.3     
  13 C13            0.6799    -2.2046     1.3192 C.3     
  14 C14           -4.3134    -4.6037     0.2170 C.3     
  15 C15           -1.7546    -0.4948    -1.6809 C.3     
  16 C16            1.2344    -2.4536     2.6982 C.ar    
  17 C17           -4.3678    -6.1088     0.2688 C.ar    
  18 C18            1.6585    -3.7252     3.0569 C.ar    
  19 C19           -4.2406    -6.7827     1.4990 C.ar    
  20 C20            1.3261    -1.4151     3.6042 C.ar    
  21 C21           -4.5402    -6.8268    -0.8685 C.ar    
  22 C22           -4.3001    -8.2658     1.5079 C.ar    
  23 C23            2.1683    -3.9512     4.3269 C.ar    
  24 C24            1.8348    -1.6430     4.8698 C.ar    
  25 C25           -4.5968    -8.2263    -0.8600 C.ar    
  26 C26           -4.4818    -8.9420     0.2859 C.ar    
  27 C27            2.2527    -2.9102     5.2315 C.ar    
  28 C28            2.0291    -6.0294     2.6035 C.3     
  29 C29            1.8568    -7.0454     1.4726 C.3     
  30 H30           -0.8091    -2.8668    -0.8207 H       
  31 H31           -3.2481    -2.5120    -0.9885 H       
  32 H32           -3.3267    -2.1599     0.7549 H       
  33 H33           -0.3068    -4.6484     0.7813 H       
  34 H34           -0.3853    -4.2963     2.5247 H       
  35 H35           -2.8244    -3.9415     2.3569 H       
  36 H36           -2.3893    -5.5578     1.7503 H       
  37 H37           -1.7870    -0.2760     0.4620 H       
  38 H38           -0.1643    -0.5190    -0.2279 H       
  39 H39            1.2639    -2.7618     0.5867 H       
  40 H40            0.7338    -1.1397     1.0928 H       
  41 H41           -4.8562    -4.1910     1.0674 H       
  42 H42           -4.7701    -4.2552    -0.7093 H       
  43 H43           -2.8198    -0.7234    -1.7171 H       
  44 H44           -1.2289    -1.0941    -2.4242 H       
  45 H45            1.0006    -0.4242     3.3239 H       
  46 H46           -4.6374    -6.3041    -1.8086 H       
  47 H47           -1.8772     1.1690    -2.8289 H       
  48 H48            2.4987    -4.9400     4.6086 H       
  49 H49            1.9061    -0.8296     5.5767 H       
  50 H50           -4.7358    -8.7508    -1.7938 H       
  51 H51           -4.5285   -10.0208     0.2617 H       
  52 H52            2.6493    -3.0857     6.2206 H       
  53 H53            3.0820    -5.9667     2.8784 H       
  54 H54            1.4460    -6.3459     3.4683 H       
  55 H55            2.2039    -8.0232     1.8067 H       
  56 H56            0.8039    -7.1081     1.1977 H       
  57 H57            2.4399    -6.7289     0.6078 H       
@<TRIPOS>BOND
   1    1   15 1
   2    1   47 1
   3    2   18 1
   4    2   28 1
   5    3    6 1
   6    3    7 1
   7    4    8 1
   8    4   10 1
   9    4   13 1
  10    5    9 1
  11    5   11 1
  12    5   14 1
  13    6   19 2
  14    7   22 2
  15    8    9 1
  16    8   12 1
  17    8   30 1
  18    9   31 1
  19    9   32 1
  20   10   11 1
  21   10   33 1
  22   10   34 1
  23   11   35 1
  24   11   36 1
  25   12   15 1
  26   12   37 1
  27   12   38 1
  28   13   16 1
  29   13   39 1
  30   13   40 1
  31   14   17 1
  32   14   41 1
  33   14   42 1
  34   15   43 1
  35   15   44 1
  36   16   18 ar
  37   16   20 ar
  38   17   19 ar
  39   17   21 ar
  40   18   23 ar
  41   19   22 ar
  42   20   24 ar
  43   20   45 1
  44   21   25 ar
  45   21   46 1
  46   22   26 ar
  47   23   27 ar
  48   23   48 1
  49   24   27 ar
  50   24   49 1
  51   25   26 ar
  52   25   50 1
  53   26   51 1
  54   27   52 1
  55   28   29 1
  56   28   53 1
  57   28   54 1
  58   29   55 1
  59   29   56 1
  60   29   57 1

#	End of record

#	Name: 16188295
#	Creating user name:	landrgr1
#	Creation time:	28. 01. 2015 13:52

#	Modifying user name:	landrgr1
#	Modification time:	28. 01. 2015 13:52

#	Program:	corina 3.48 0006  22.01.2010

@<TRIPOS>MOLECULE
16188295
  46   48    0    0    0
SMALL
NO_CHARGES


@<TRIPOS>ATOM
   1 O1            -0.0173     1.4248     0.0099 O.3     
   2 N2            -3.5152    -2.0823    -1.2543 N.3     
   3 N3            -6.2529    -0.8503    -2.2328 N.ar    
   4 C4            -1.4333    -0.5336     0.0129 C.3     
   5 C5            -1.4139    -2.0647     0.0045 C.3     
   6 C6            -2.1727    -0.0336    -1.2312 C.3     
   7 C7            -2.8512    -2.5879    -0.0461 C.3     
   8 C8            -3.5879    -0.6157    -1.2460 C.3     
   9 C9            -2.1529    -0.0383     1.2689 C.3     
  10 C10            0.0021    -0.0041     0.0020 C.3     
  11 C11           -4.8507    -2.6747    -1.4081 C.3     
  12 C12           -2.1714     1.4686     1.2760 C.ar    
  13 C13           -5.5940    -1.9595    -2.5067 C.ar    
  14 C14           -3.2202     2.1498     0.6871 C.ar    
  15 C15           -1.1422     2.1695     1.8764 C.ar    
  16 C16           -3.2370     3.5320     0.6936 C.ar    
  17 C17           -1.1591     3.5518     1.8829 C.ar    
  18 C18           -5.5778    -2.4736    -3.7892 C.ar    
  19 C19           -2.2053     4.2330     1.2894 C.ar    
  20 C20           -6.2650    -1.8078    -4.7929 C.ar    
  21 C21           -6.9168    -0.1909    -3.1618 C.ar    
  22 C22           -6.9456    -0.6449    -4.4670 C.ar    
  23 H23           -0.8674    -2.4169    -0.8704 H       
  24 H24           -0.9262    -2.4274     0.9093 H       
  25 H25           -2.2271     1.0549    -1.2093 H       
  26 H26           -1.6381    -0.3538    -2.1255 H       
  27 H27           -3.3931    -2.2468     0.8359 H       
  28 H28           -2.8404    -3.6777    -0.0667 H       
  29 H29           -4.1123    -0.2730    -2.1380 H       
  30 H30           -4.1264    -0.2838    -0.3584 H       
  31 H31           -3.1761    -0.4142     1.2736 H       
  32 H32           -1.6292    -0.3994     2.1540 H       
  33 H33            0.5123    -0.3556    -0.8948 H       
  34 H34            0.5293    -0.3651     0.8851 H       
  35 H35           -4.7529    -3.7300    -1.6629 H       
  36 H36           -5.4017    -2.5763    -0.4728 H       
  37 H37            0.8606     1.8301     0.0037 H       
  38 H38           -4.0263     1.6021     0.2216 H       
  39 H39           -0.3252     1.6373     2.3407 H       
  40 H40           -4.0561     4.0642     0.2328 H       
  41 H41           -0.3553     4.0994     2.3523 H       
  42 H42           -5.0364    -3.3823    -4.0072 H       
  43 H43           -2.2183     5.3129     1.2941 H       
  44 H44           -6.2696    -2.1861    -5.8045 H       
  45 H45           -7.4451     0.7139    -2.8996 H       
  46 H46           -7.4912    -0.1004    -5.2235 H       
@<TRIPOS>BOND
   1    1   10 1
   2    1   37 1
   3    2    7 1
   4    2    8 1
   5    2   11 1
   6    3   13 ar
   7    3   21 ar
   8    4    5 1
   9    4    6 1
  10    4    9 1
  11    4   10 1
  12    5    7 1
  13    5   23 1
  14    5   24 1
  15    6    8 1
  16    6   25 1
  17    6   26 1
  18    7   27 1
  19    7   28 1
  20    8   29 1
  21    8   30 1
  22    9   12 1
  23    9   31 1
  24    9   32 1
  25   10   33 1
  26   10   34 1
  27   11   13 1
  28   11   35 1
  29   11   36 1
  30   12   14 ar
  31   12   15 ar
  32   13   18 ar
  33   14   16 ar
  34   14   38 1
  35   15   17 ar
  36   15   39 1
  37   16   19 ar
  38   16   40 1
  39   17   19 ar
  40   17   41 1
  41   18   20 ar
  42   18   42 1
  43   19   43 1
  44   20   22 ar
  45   20   44 1
  46   21   22 ar
  47   21   45 1
  48   22   46 1

#	End of record

#	Name: 16188187
#	Creating user name:	landrgr1
#	Creation time:	28. 01. 2015 13:52

#	Modifying user name:	landrgr1
#	Modification time:	28. 01. 2015 13:52

#	Program:	corina 3.48 0006  22.01.2010

@<TRIPOS>MOLECULE
16188187
  52   55    0    0    0
SMALL
NO_CHARGES


@<TRIPOS>ATOM
   1 F1            -4.7489    -9.0805     0.5029 F       
   2 O2            -0.5457     1.1871    -0.6102 O.3     
   3 N3             1.2218    -8.0076     1.8153 N.3     
   4 N4            -0.1707    -4.3128    -0.1702 N.pl3   
   5 N5            -1.2032    -5.2297    -0.4055 N.2     
   6 N6             1.1814    -8.7796     4.4368 N.ar    
   7 N7             2.2634    -9.3554     6.3862 N.ar    
   8 C8             0.6247    -6.3252     0.1667 C.2     
   9 C9             1.5561    -7.4644     0.4921 C.3     
  10 C10            2.1603    -9.0701     2.2007 C.3     
  11 C11           -0.7293    -6.4416    -0.2040 C.2     
  12 C12            0.9403    -5.0117     0.1795 C.2     
  13 C13           -1.4890    -7.7086    -0.3427 C.ar    
  14 C14            2.2081    -9.1775     3.7031 C.ar    
  15 C15            1.6941   -10.4017     1.6088 C.3     
  16 C16           -0.2657    -2.9183    -0.2820 C.ar    
  17 C17           -2.7868    -7.8032     0.1543 C.ar    
  18 C18           -0.9086    -8.8061    -0.9759 C.ar    
  19 C19           -1.4674    -2.3318    -0.6561 C.ar    
  20 C20            0.8403    -2.1230    -0.0130 C.ar    
  21 C21            3.3285    -9.6939     4.3351 C.ar    
  22 C22           -3.4901    -8.9862     0.0217 C.ar    
  23 C23           -1.6187    -9.9825    -1.1033 C.ar    
  24 C24           -1.5605    -0.9587    -0.7656 C.ar    
  25 C25            0.7460    -0.7500    -0.1228 C.ar    
  26 C26           -0.4536    -0.1648    -0.5018 C.ar    
  27 C27           -2.9051   -10.0750    -0.6037 C.ar    
  28 C28            3.3272    -9.7729     5.7186 C.ar    
  29 C29            1.2156    -8.8698     5.7514 C.ar    
  30 C30            0.6330     1.9427    -0.3239 C.3     
  31 H31            2.5844    -7.1028     0.4970 H       
  32 H32            1.4497    -8.2467    -0.2594 H       
  33 H33            3.1541    -8.8321     1.8216 H       
  34 H34            1.1976    -7.2769     2.5107 H       
  35 H35            1.9049    -4.5918     0.4240 H       
  36 H36            0.7002   -10.6397     1.9879 H       
  37 H37            1.6594   -10.3240     0.5221 H       
  38 H38            2.3904   -11.1900     1.8947 H       
  39 H39           -3.2426    -6.9544     0.6425 H       
  40 H40            0.0958    -8.7359    -1.3668 H       
  41 H41           -2.3290    -2.9496    -0.8618 H       
  42 H42            1.7740    -2.5784     0.2823 H       
  43 H43            4.1818   -10.0271     3.7630 H       
  44 H44           -1.1690   -10.8329    -1.5943 H       
  45 H45           -2.4950    -0.5024    -1.0569 H       
  46 H46            1.6061    -0.1313     0.0867 H       
  47 H47           -3.4568   -10.9979    -0.7050 H       
  48 H48            4.1828   -10.1694     6.2450 H       
  49 H49            0.3622    -8.5370     6.3234 H       
  50 H50            0.4226     3.0050    -0.4480 H       
  51 H51            0.9465     1.7518     0.7024 H       
  52 H52            1.4288     1.6476    -1.0078 H       
@<TRIPOS>BOND
   1    1   22 1
   2    2   26 1
   3    2   30 1
   4    3    9 1
   5    3   10 1
   6    3   34 1
   7    4    5 1
   8    4   12 1
   9    4   16 1
  10    5   11 2
  11    6   14 ar
  12    6   29 ar
  13    7   28 ar
  14    7   29 ar
  15    8    9 1
  16    8   11 1
  17    8   12 2
  18    9   31 1
  19    9   32 1
  20   10   14 1
  21   10   15 1
  22   10   33 1
  23   11   13 1
  24   12   35 1
  25   13   17 ar
  26   13   18 ar
  27   14   21 ar
  28   15   36 1
  29   15   37 1
  30   15   38 1
  31   16   19 ar
  32   16   20 ar
  33   17   22 ar
  34   17   39 1
  35   18   23 ar
  36   18   40 1
  37   19   24 ar
  38   19   41 1
  39   20   25 ar
  40   20   42 1
  41   21   28 ar
  42   21   43 1
  43   22   27 ar
  44   23   27 ar
  45   23   44 1
  46   24   26 ar
  47   24   45 1
  48   25   26 ar
  49   25   46 1
  50   27   47 1
  51   28   48 1
  52   29   49 1
  53   30   50 1
  54   30   51 1
  55   30   52 1

#	End of record

#	Name: 16188103
#	Creating user name:	landrgr1
#	Creation time:	28. 01. 2015 13:52

#	Modifying user name:	landrgr1
#	Modification time:	28. 01. 2015 13:52

#	Program:	corina 3.48 0006  22.01.2010

@<TRIPOS>MOLECULE
16188103
  38   39    0    0    0
SMALL
NO_CHARGES


@<TRIPOS>ATOM
   1 I1             0.0000     0.0000     0.0000 I       
   2 S2             7.0388    12.7303     6.0734 S.3     
   3 O3             7.8932     6.9186     6.0341 O.3     
   4 O4             7.8615    17.7733     6.0914 O.3     
   5 N5             9.2684    11.5596     6.0459 N.2     
   6 C6             8.3970    10.5446     6.0487 C.ar    
   7 C7             7.0627    10.9683     6.0637 C.ar    
   8 C8             8.7966    12.7655     6.0568 C.2     
   9 C9             8.6605     9.1560     6.0388 C.ar    
  10 C10            6.0257    10.0375     6.0687 C.ar    
  11 C11           10.7126    11.3144     6.0312 C.3     
  12 C12            7.6247     8.2515     6.0438 C.ar    
  13 C13            9.6108    13.9842     6.0552 C.2     
  14 C14            6.3030     8.6897     6.0588 C.ar    
  15 C15            9.0148    15.1924     6.0674 C.2     
  16 C16            9.8320    16.4157     6.0657 C.ar    
  17 C17            9.2157    17.6764     6.0784 C.ar    
  18 C18           11.2271    16.3294     6.0573 C.ar    
  19 C19            9.9951    18.8213     6.0772 C.ar    
  20 C20           11.9867    17.4801     6.0563 C.ar    
  21 C21           11.3738    18.7216     6.0631 C.ar    
  22 C22            6.7732     6.0311     6.0400 C.3     
  23 H23            9.6812     8.8033     6.0268 H       
  24 H24            5.0000    10.3754     6.0806 H       
  25 H25           11.0613    11.2588     5.0000 H       
  26 H26           11.2246    12.1283     6.5445 H       
  27 H27           10.9266    10.3735     6.5383 H       
  28 H28           10.6884    13.9137     6.0441 H       
  29 H29            5.4959     7.9721     6.0630 H       
  30 H30            7.9372    15.2629     6.0784 H       
  31 H31           11.7092    15.3630     6.0520 H       
  32 H32            9.5249    19.7935     6.0870 H       
  33 H33           13.0646    17.4127     6.0498 H       
  34 H34           11.9766    19.6177     6.0618 H       
  35 H35            6.1778     6.2034     6.9366 H       
  36 H36            6.1608     6.2129     5.1568 H       
  37 H37            7.1266     5.0000     6.0311 H       
  38 H38            7.4774    17.7964     6.9785 H       
@<TRIPOS>BOND
   1    2    7 1
   2    2    8 1
   3    3   12 1
   4    3   22 1
   5    4   17 1
   6    4   38 1
   7    5    6 1
   8    5    8 2
   9    5   11 1
  10    6    7 ar
  11    6    9 ar
  12    7   10 ar
  13    8   13 1
  14    9   12 ar
  15    9   23 1
  16   10   14 ar
  17   10   24 1
  18   11   25 1
  19   11   26 1
  20   11   27 1
  21   12   14 ar
  22   13   15 2
  23   13   28 1
  24   14   29 1
  25   15   16 1
  26   15   30 1
  27   16   17 ar
  28   16   18 ar
  29   17   19 ar
  30   18   20 ar
  31   18   31 1
  32   19   21 ar
  33   19   32 1
  34   20   21 ar
  35   20   33 1
  36   21   34 1
  37   22   35 1
  38   22   36 1
  39   22   37 1

#	End of record

#	Name: 16188028
#	Creating user name:	landrgr1
#	Creation time:	28. 01. 2015 13:52

#	Modifying user name:	landrgr1
#	Modification time:	28. 01. 2015 13:52

#	Program:	corina 3.48 0006  22.01.2010

@<TRIPOS>MOLECULE
16188028
  53   56    0    0    0
SMALL
NO_CHARGES


@<TRIPOS>ATOM
   1 Cl1           -5.5258     3.9881    -4.5772 Cl      
   2 S2            -3.0713     1.4616     3.3291 S.o2    
   3 S3             0.9010     5.5693     4.3503 S.o2    
   4 O4             0.0676     4.6897     8.5124 O.3     
   5 O5            -4.0345     1.0132     4.2726 O.2     
   6 O6            -1.7435     0.9557     3.3103 O.2     
   7 O7             1.0672     6.9796     4.4044 O.2     
   8 O8             1.9715     4.6697     4.0974 O.2     
   9 O9            -3.1891     5.0960    -0.9361 O.2     
  10 N10           -4.2274     3.6208     0.3594 N.am    
  11 N11            0.2458     5.1197     5.8032 N.am    
  12 C12           -4.3596     3.0016     1.6805 C.3     
  13 C13           -3.7796     1.5655     1.6365 C.3     
  14 C14           -3.6144     3.8187     2.6905 C.2     
  15 C15           -2.9117     3.2109     3.6045 C.2     
  16 C16            0.4024     3.7482     6.3128 C.3     
  17 C17           -0.5100     6.0800     6.6230 C.3     
  18 C18           -3.2408     4.5092     0.1273 C.2     
  19 C19            0.9166     3.8240     7.7550 C.3     
  20 C20            0.0486     6.0423     8.0500 C.3     
  21 C21           -5.1249     3.2902    -0.6608 C.ar    
  22 C22           -0.3133     5.2586     3.1120 C.ar    
  23 C23           -2.2218     4.7701     1.1658 C.ar    
  24 C24           -1.2221     6.2461     2.7754 C.ar    
  25 C25           -0.3502     4.0301     2.4765 C.ar    
  26 C26           -2.1754     6.0093     1.8067 C.ar    
  27 C27           -1.2983     3.7802     1.5061 C.ar    
  28 C28           -4.9070     3.7466    -1.9539 C.ar    
  29 C29           -6.2332     2.4997    -0.3837 C.ar    
  30 C30           -5.7963     3.4178    -2.9600 C.ar    
  31 C31           -7.1179     2.1746    -1.3928 C.ar    
  32 C32           -6.9022     2.6349    -2.6789 C.ar    
  33 H33           -5.4132     2.9585     1.9566 H       
  34 H34           -3.0043     1.4740     0.8758 H       
  35 H35           -4.5655     0.8247     1.4893 H       
  36 H36           -3.6587     4.8974     2.6614 H       
  37 H37           -2.3367     3.6839     4.3868 H       
  38 H38           -0.5600     3.2369     6.2926 H       
  39 H39            1.1193     3.2068     5.6955 H       
  40 H40           -0.3973     7.0829     6.2110 H       
  41 H41           -1.5642     5.8035     6.6340 H       
  42 H42            1.9334     4.2167     7.7588 H       
  43 H43            0.9085     2.8278     8.1973 H       
  44 H44           -0.5839     6.6420     8.7046 H       
  45 H45            1.0623     6.4430     8.0549 H       
  46 H46           -1.1853     7.2043     3.2723 H       
  47 H47            0.3651     3.2652     2.7406 H       
  48 H48           -2.8870     6.7795     1.5480 H       
  49 H49           -1.3289     2.8193     1.0140 H       
  50 H50           -4.0442     4.3579    -2.1733 H       
  51 H51           -6.4025     2.1393     0.6203 H       
  52 H52           -7.9794     1.5598    -1.1775 H       
  53 H53           -7.5957     2.3792    -3.4663 H       
@<TRIPOS>BOND
   1    1   30 1
   2    2    5 2
   3    2    6 2
   4    2   13 1
   5    2   15 1
   6    3    7 2
   7    3    8 2
   8    3   11 am
   9    3   22 1
  10    4   19 1
  11    4   20 1
  12    9   18 2
  13   10   12 1
  14   10   18 am
  15   10   21 1
  16   11   16 1
  17   11   17 1
  18   12   13 1
  19   12   14 1
  20   12   33 1
  21   13   34 1
  22   13   35 1
  23   14   15 2
  24   14   36 1
  25   15   37 1
  26   16   19 1
  27   16   38 1
  28   16   39 1
  29   17   20 1
  30   17   40 1
  31   17   41 1
  32   18   23 1
  33   19   42 1
  34   19   43 1
  35   20   44 1
  36   20   45 1
  37   21   28 ar
  38   21   29 ar
  39   22   24 ar
  40   22   25 ar
  41   23   26 ar
  42   23   27 ar
  43   24   26 ar
  44   24   46 1
  45   25   27 ar
  46   25   47 1
  47   26   48 1
  48   27   49 1
  49   28   30 ar
  50   28   50 1
  51   29   31 ar
  52   29   51 1
  53   30   32 ar
  54   31   32 ar
  55   31   52 1
  56   32   53 1

#	End of record

#	Name: 16187974
#	Creating user name:	landrgr1
#	Creation time:	28. 01. 2015 13:52

#	Modifying user name:	landrgr1
#	Modification time:	28. 01. 2015 13:52

#	Program:	corina 3.48 0006  22.01.2010

@<TRIPOS>MOLECULE
16187974
  39   41    0    0    0
SMALL
NO_CHARGES


@<TRIPOS>ATOM
   1 O1             6.8055     0.2096    -0.4847 O.2     
   2 N2            -0.0173     1.4281     0.0099 N.3     
   3 N3             0.2499     0.8676    -2.6746 N.3     
   4 N4             3.4097    -0.5677    -0.7226 N.2     
   5 N5             4.5960     0.1775    -0.7105 N.am    
   6 N6             5.8146    -1.7690    -0.2915 N.am    
   7 C7             0.9457    -0.7050    -0.9592 C.3     
   8 C8             2.1402     1.5153    -1.1673 C.3     
   9 C9             0.0021    -0.0041     0.0020 C.3     
  10 C10            0.4187    -0.5372    -2.3957 C.3     
  11 C11            2.2891     0.0162    -0.9271 C.2     
  12 C12            1.3146     2.0570     0.0006 C.3     
  13 C13            1.4284     1.7058    -2.5025 C.3     
  14 C14            1.0915    -2.1849    -0.5992 C.3     
  15 C15           -0.8821     2.1212    -0.9148 C.3     
  16 C16           -0.9858     1.4809    -2.2646 C.3     
  17 C17            2.0472    -2.8581    -1.5864 C.3     
  18 C18            5.7759    -0.4372    -0.4952 C.2     
  19 H19            3.1209     1.9908    -1.1840 H       
  20 H20            0.2486    -0.3374     1.0101 H       
  21 H21           -1.0089    -0.3477    -0.2169 H       
  22 H22           -0.5402    -1.0461    -2.4939 H       
  23 H23            1.1335    -0.9652    -3.0985 H       
  24 H24            1.2044     3.1363    -0.1042 H       
  25 H25            1.8255     1.8364     0.9378 H       
  26 H26            2.1318     1.4841    -3.3051 H       
  27 H27            1.1270     2.7497    -2.5888 H       
  28 H28            1.4898    -2.2755     0.4113 H       
  29 H29            0.1163    -2.6690    -0.6501 H       
  30 H30           -1.8802     2.1754    -0.4803 H       
  31 H31           -0.5087     3.1373    -1.0419 H       
  32 H32           -1.2629     2.2405    -2.9956 H       
  33 H33           -1.7655     0.7198    -2.2356 H       
  34 H34            2.1511    -3.9124    -1.3299 H       
  35 H35            1.6489    -2.7675    -2.5969 H       
  36 H36            3.0225    -2.3739    -1.5354 H       
  37 H37            4.5681     1.1360    -0.8571 H       
  38 H38            6.6638    -2.2114    -0.1366 H       
  39 H39            4.9933    -2.2850    -0.2999 H       
@<TRIPOS>BOND
   1    1   18 2
   2    2    9 1
   3    2   12 1
   4    2   15 1
   5    3   10 1
   6    3   13 1
   7    3   16 1
   8    4    5 1
   9    4   11 2
  10    5   18 am
  11    5   37 1
  12    6   18 am
  13    6   38 1
  14    6   39 1
  15    7    9 1
  16    7   10 1
  17    7   11 1
  18    7   14 1
  19    8   11 1
  20    8   12 1
  21    8   13 1
  22    8   19 1
  23    9   20 1
  24    9   21 1
  25   10   22 1
  26   10   23 1
  27   12   24 1
  28   12   25 1
  29   13   26 1
  30   13   27 1
  31   14   17 1
  32   14   28 1
  33   14   29 1
  34   15   16 1
  35   15   30 1
  36   15   31 1
  37   16   32 1
  38   16   33 1
  39   17   34 1
  40   17   35 1
  41   17   36 1

#	End of record

#	Name: 16187970
#	Creating user name:	landrgr1
#	Creation time:	28. 01. 2015 13:52

#	Modifying user name:	landrgr1
#	Modification time:	28. 01. 2015 13:52

#	Program:	corina 3.48 0006  22.01.2010

@<TRIPOS>MOLECULE
16187970
  50   53    0    0    0
SMALL
NO_CHARGES


@<TRIPOS>ATOM
   1 F1            -1.9879     2.3675    -2.7548 F       
   2 O2             0.0309     0.9334     0.5362 O.3     
   3 O3            -5.1794    -0.6616    -1.1740 O.2     
   4 O4            -0.3589    -4.4586    -0.4081 O.3     
   5 N5            -3.9919     1.2230    -0.9267 N.am    
   6 N6            -2.8080     0.5427    -0.9678 N.3     
   7 N7            -5.0848     3.2981    -0.7327 N.2     
   8 C8            -2.5607    -0.1603     0.2981 C.3     
   9 C9            -3.9897     2.5832    -0.7795 C.2     
  10 C10           -6.4035     1.3304    -0.9872 C.ar    
  11 C11           -1.3126    -0.9956     0.1733 C.ar    
  12 C12           -5.1596     0.5478    -1.0375 C.2     
  13 C13           -6.3043     2.7318    -0.8280 C.ar    
  14 C14           -2.6906     3.2771    -0.6678 C.ar    
  15 C15           -0.0656    -0.4022     0.2999 C.ar    
  16 C16           -1.4108    -2.3535    -0.0616 C.ar    
  17 C17           -7.6549     0.7274    -1.0922 C.ar    
  18 C18           -7.4717     3.4988    -0.7771 C.ar    
  19 C19           -0.2622    -3.1220    -0.1769 C.ar    
  20 C20           -1.7306     3.1379    -1.6752 C.ar    
  21 C21           -2.4171     4.0797     0.4412 C.ar    
  22 C22            1.0833    -1.1711     0.1850 C.ar    
  23 C23           -8.7910     1.5055    -1.0390 C.ar    
  24 C24           -8.6981     2.8816    -0.8776 C.ar    
  25 C25            0.9852    -2.5275    -0.0555 C.ar    
  26 C26           -0.5173     3.7909    -1.5626 C.ar    
  27 C27           -1.2021     4.7250     0.5395 C.ar    
  28 C28           -0.2533     4.5788    -0.4574 C.ar    
  29 C29            1.3393     1.4577     0.7717 C.3     
  30 C30            0.8649    -5.1885    -0.5156 C.3     
  31 H31           -2.4320     0.5678     1.0990 H       
  32 H32           -3.4086    -0.8060     0.5269 H       
  33 H33           -2.7857    -0.0975    -1.7473 H       
  34 H34           -2.3820    -2.8164    -0.1558 H       
  35 H35           -7.7341    -0.3427    -1.2148 H       
  36 H36           -7.4119     4.5706    -0.6591 H       
  37 H37           -3.1558     4.1955     1.2205 H       
  38 H38            2.0544    -0.7089     0.2832 H       
  39 H39           -9.7624     1.0405    -1.1202 H       
  40 H40           -9.5990     3.4759    -0.8377 H       
  41 H41            1.8797    -3.1261    -0.1450 H       
  42 H42            0.2259     3.6851    -2.3391 H       
  43 H43           -0.9904     5.3463     1.3972 H       
  44 H44            0.6962     5.0866    -0.3740 H       
  45 H45            1.2662     2.5136     1.0320 H       
  46 H46            1.8068     0.9129     1.5919 H       
  47 H47            1.9429     1.3464    -0.1290 H       
  48 H48            0.6457    -6.2403    -0.6997 H       
  49 H49            1.4541    -4.7902    -1.3416 H       
  50 H50            1.4284    -5.0918     0.4124 H       
@<TRIPOS>BOND
   1    1   20 1
   2    2   15 1
   3    2   29 1
   4    3   12 2
   5    4   19 1
   6    4   30 1
   7    5    6 1
   8    5    9 1
   9    5   12 am
  10    6    8 1
  11    6   33 1
  12    7    9 2
  13    7   13 1
  14    8   11 1
  15    8   31 1
  16    8   32 1
  17    9   14 1
  18   10   12 1
  19   10   13 ar
  20   10   17 ar
  21   11   15 ar
  22   11   16 ar
  23   13   18 ar
  24   14   20 ar
  25   14   21 ar
  26   15   22 ar
  27   16   19 ar
  28   16   34 1
  29   17   23 ar
  30   17   35 1
  31   18   24 ar
  32   18   36 1
  33   19   25 ar
  34   20   26 ar
  35   21   27 ar
  36   21   37 1
  37   22   25 ar
  38   22   38 1
  39   23   24 ar
  40   23   39 1
  41   24   40 1
  42   25   41 1
  43   26   28 ar
  44   26   42 1
  45   27   28 ar
  46   27   43 1
  47   28   44 1
  48   29   45 1
  49   29   46 1
  50   29   47 1
  51   30   48 1
  52   30   49 1
  53   30   50 1

#	End of record

#	Name: 16187902
#	Creating user name:	landrgr1
#	Creation time:	28. 01. 2015 13:52

#	Modifying user name:	landrgr1
#	Modification time:	28. 01. 2015 13:52

#	Program:	corina 3.48 0006  22.01.2010

@<TRIPOS>MOLECULE
16187902
  36   38    0    0    0
SMALL
NO_CHARGES


@<TRIPOS>ATOM
   1 S1             0.0008     1.7503     0.2543 S.3     
   2 O2             1.8919     4.2589     0.0059 O.3     
   3 O3             2.7187    -2.3668     0.3197 O.2     
   4 O4             3.7385     3.0223    -0.0355 O.2     
   5 N5             0.5158    -2.7116     0.4680 N.am    
   6 N6            -0.9575    -0.9078     0.4544 N.2     
   7 C7             1.3645    -0.4473     0.2937 C.2     
   8 C8             2.2811     0.5966     0.1831 C.2     
   9 C9             0.0381    -0.0062     0.3476 C.2     
  10 C10            1.7512     1.8299     0.1472 C.2     
  11 C11            1.5920    -1.9057     0.3604 C.2     
  12 C12            3.7672     0.3574     0.1093 C.3     
  13 C13           -0.7334    -2.1862     0.5100 C.2     
  14 C14            2.5250     3.0679     0.0337 C.2     
  15 C15            0.6975    -4.1636     0.5365 C.3     
  16 C16            2.6520     5.3856     0.0024 C.ar    
  17 C17            4.0575     6.9383    -1.1638 C.ar    
  18 C18            3.2856     5.7930    -1.1630 C.ar    
  19 C19            2.7912     6.1333     1.1626 C.ar    
  20 C20            4.1990     7.6791    -0.0046 C.ar    
  21 C21            3.5646     7.2782     1.1565 C.ar    
  22 C22            4.7462     7.3811    -2.4290 C.3     
  23 H23            4.0656     0.2438    -0.9329 H       
  24 H24            4.2938     1.2051     0.5477 H       
  25 H25            4.0170    -0.5496     0.6597 H       
  26 H26           -1.5754    -2.8569     0.5961 H       
  27 H27            0.8032    -4.4678     1.5779 H       
  28 H28           -0.1692    -4.6593     0.0994 H       
  29 H29            1.5939    -4.4441    -0.0166 H       
  30 H30            3.1754     5.2148    -2.0685 H       
  31 H31            2.2953     5.8209     2.0697 H       
  32 H32            4.8030     8.5744    -0.0073 H       
  33 H33            3.6733     7.8607     2.0594 H       
  34 H34            4.0866     8.0442    -2.9888 H       
  35 H35            5.6647     7.9108    -2.1763 H       
  36 H36            4.9855     6.5086    -3.0369 H       
@<TRIPOS>BOND
   1    1    9 1
   2    1   10 1
   3    2   14 1
   4    2   16 1
   5    3   11 2
   6    4   14 2
   7    5   11 am
   8    5   13 1
   9    5   15 1
  10    6    9 1
  11    6   13 2
  12    7    8 1
  13    7    9 2
  14    7   11 1
  15    8   10 2
  16    8   12 1
  17   10   14 1
  18   12   23 1
  19   12   24 1
  20   12   25 1
  21   13   26 1
  22   15   27 1
  23   15   28 1
  24   15   29 1
  25   16   18 ar
  26   16   19 ar
  27   17   18 ar
  28   17   20 ar
  29   17   22 1
  30   18   30 1
  31   19   21 ar
  32   19   31 1
  33   20   21 ar
  34   20   32 1
  35   21   33 1
  36   22   34 1
  37   22   35 1
  38   22   36 1

#	End of record

#	Name: 16187812
#	Creating user name:	landrgr1
#	Creation time:	28. 01. 2015 13:52

#	Modifying user name:	landrgr1
#	Modification time:	28. 01. 2015 13:52

#	Program:	corina 3.48 0006  22.01.2010

@<TRIPOS>MOLECULE
16187812
  57   60    0    0    0
SMALL
NO_CHARGES


@<TRIPOS>ATOM
   1 O1            -3.4851    -2.2848     0.0239 O.2     
   2 O2            -0.0164     1.3549     0.0095 O.3     
   3 O3            -7.6154   -11.5225     1.2986 O.2     
   4 N4            -3.6653    -6.3851     0.5931 N.3     
   5 N5            -5.5107   -10.3909     0.2177 N.pl3   
   6 N6            -8.1971   -12.8491    -0.3818 N.am    
   7 C7            -2.3937    -4.3769     0.0009 C.3     
   8 C8            -3.6846    -4.9170     0.6207 C.3     
   9 C9            -2.2774    -4.8774    -1.4414 C.3     
  10 C10           -2.3084    -6.4083    -1.4462 C.3     
  11 C11           -3.6018    -6.8895    -0.7846 C.3     
  12 C12           -4.8248    -6.9402     1.3040 C.3     
  13 C13           -2.4234    -2.8702     0.0098 C.2     
  14 C14           -4.9075    -8.4232     1.0492 C.2     
  15 C15           -4.1237    -9.4666     1.7146 C.ar    
  16 C16           -5.7139    -9.0385     0.1700 C.2     
  17 C17           -4.5440   -10.6862     1.1527 C.ar    
  18 C18           -1.1636    -2.1093     0.0014 C.ar    
  19 C19           -3.1386    -9.4583     2.7035 C.ar    
  20 C20           -6.2206   -11.3779    -0.5996 C.3     
  21 C21           -3.9682   -11.8734     1.5925 C.ar    
  22 C22           -1.1875    -0.7118     0.0096 C.ar    
  23 C23            0.0630    -2.7815    -0.0090 C.ar    
  24 C24           -2.5868   -10.6366     3.1214 C.ar    
  25 C25           -2.9968   -11.8421     2.5693 C.ar    
  26 C26            0.0021    -0.0041     0.0020 C.ar    
  27 C27           -7.3939   -11.9209     0.1747 C.2     
  28 C28            1.2408    -2.0643    -0.0165 C.ar    
  29 C29            1.2142    -0.6813    -0.0137 C.ar    
  30 C30            1.2479     2.0209     0.0010 C.3     
  31 H31           -1.5383    -4.7280     0.5781 H       
  32 H32           -4.5403    -4.5542     0.0512 H       
  33 H33           -3.7633    -4.5741     1.6523 H       
  34 H34           -3.1122    -4.4943    -2.0284 H       
  35 H35           -1.3383    -4.5307    -1.8727 H       
  36 H36           -2.2690    -6.7698    -2.4737 H       
  37 H37           -1.4517    -6.7913    -0.8919 H       
  38 H38           -3.6204    -7.9793    -0.7735 H       
  39 H39           -4.4579    -6.5175    -1.3474 H       
  40 H40           -4.7153    -6.7608     2.3735 H       
  41 H41           -5.7350    -6.4587     0.9462 H       
  42 H42           -6.4184    -8.5400    -0.4793 H       
  43 H43           -2.8139    -8.5239     3.1371 H       
  44 H44           -6.5769   -10.9037    -1.5141 H       
  45 H45           -5.5438   -12.1938    -0.8533 H       
  46 H46           -4.2816   -12.8167     1.1701 H       
  47 H47           -2.1308    -0.1861     0.0214 H       
  48 H48            0.0877    -3.8612    -0.0109 H       
  49 H49           -1.8246   -10.6296     3.8866 H       
  50 H50           -2.5511   -12.7651     2.9097 H       
  51 H51            2.1873    -2.5843    -0.0241 H       
  52 H52            2.1403    -0.1257    -0.0199 H       
  53 H53           -8.9524   -13.1986     0.1166 H       
  54 H54           -8.0200   -13.1677    -1.2807 H       
  55 H55            1.8173     1.7309     0.8840 H       
  56 H56            1.8003     1.7404    -0.8958 H       
  57 H57            1.0905     3.0995     0.0083 H       
@<TRIPOS>BOND
   1    1   13 2
   2    2   26 1
   3    2   30 1
   4    3   27 2
   5    4    8 1
   6    4   11 1
   7    4   12 1
   8    5   16 1
   9    5   17 1
  10    5   20 1
  11    6   27 am
  12    6   53 1
  13    6   54 1
  14    7    8 1
  15    7    9 1
  16    7   13 1
  17    7   31 1
  18    8   32 1
  19    8   33 1
  20    9   10 1
  21    9   34 1
  22    9   35 1
  23   10   11 1
  24   10   36 1
  25   10   37 1
  26   11   38 1
  27   11   39 1
  28   12   14 1
  29   12   40 1
  30   12   41 1
  31   13   18 1
  32   14   15 1
  33   14   16 2
  34   15   17 ar
  35   15   19 ar
  36   16   42 1
  37   17   21 ar
  38   18   22 ar
  39   18   23 ar
  40   19   24 ar
  41   19   43 1
  42   20   27 1
  43   20   44 1
  44   20   45 1
  45   21   25 ar
  46   21   46 1
  47   22   26 ar
  48   22   47 1
  49   23   28 ar
  50   23   48 1
  51   24   25 ar
  52   24   49 1
  53   25   50 1
  54   26   29 ar
  55   28   29 ar
  56   28   51 1
  57   29   52 1
  58   30   55 1
  59   30   56 1
  60   30   57 1

#	End of record

#	Name: 16187800
#	Creating user name:	landrgr1
#	Creation time:	28. 01. 2015 13:52

#	Modifying user name:	landrgr1
#	Modification time:	28. 01. 2015 13:52

#	Program:	corina 3.48 0006  22.01.2010

@<TRIPOS>MOLECULE
16187800
  59   61    0    0    0
SMALL
NO_CHARGES


@<TRIPOS>ATOM
   1 O1             2.5232     4.1100     0.1973 O.2     
   2 O2             0.2563     3.6042    -2.0404 O.2     
   3 N3            -0.3032     1.9879    -0.0038 N.3     
   4 N4             0.4983     4.4484     0.9705 N.am    
   5 N5             1.4000     2.6278    -3.6715 N.am    
   6 N6             3.0486     6.9546    -5.3533 N.ar    
   7 C7            -0.2087    -0.2268     1.0369 C.3     
   8 C8            -0.5970     0.5640    -0.2139 C.3     
   9 C9            -1.2231    -1.3490     1.2663 C.3     
  10 C10            1.1846    -0.8299     0.8469 C.3     
  11 C11           -0.8347    -2.1398     2.5171 C.3     
  12 C12            1.5730    -1.6207     2.0978 C.3     
  13 C13            0.5585    -2.7428     2.3271 C.3     
  14 C14            1.1457     2.2248     0.0453 C.3     
  15 C15           -0.9404     2.4819     1.2276 C.3     
  16 C16           -0.8682     4.0100     1.2392 C.3     
  17 C17            1.7557     1.9276    -1.3260 C.3     
  18 C18            1.4198     3.6555     0.4137 C.2     
  19 C19            1.0830     2.7805    -2.3705 C.2     
  20 C20            0.7459     3.4569    -4.6870 C.3     
  21 C21            2.3986     1.6328    -4.0703 C.3     
  22 C22            1.5644     4.6999    -4.9241 C.ar    
  23 C23            1.1153     5.6925    -5.7813 C.ar    
  24 C24            2.7845     4.8781    -4.2895 C.ar    
  25 C25           -0.2039     5.5451    -6.4947 C.3     
  26 C26            1.8930     6.8189    -5.9737 C.ar    
  27 C27            3.5070     6.0310    -4.5310 C.ar    
  28 H28           -0.2018     0.4388     1.9001 H       
  29 H29           -1.6622     0.4376    -0.4076 H       
  30 H30           -0.0265     0.1974    -1.0673 H       
  31 H31           -2.2157    -0.9193     1.4016 H       
  32 H32           -1.2299    -2.0146     0.4031 H       
  33 H33            1.1778    -1.4955    -0.0162 H       
  34 H34            1.9073    -0.0304     0.6835 H       
  35 H35           -0.8279    -1.4742     3.3802 H       
  36 H36           -1.5575    -2.9392     2.6805 H       
  37 H37            2.5655    -2.0503     1.9624 H       
  38 H38            1.5798    -0.9551     2.9609 H       
  39 H39            0.8352    -3.3063     3.2182 H       
  40 H40            0.5517    -3.4085     1.4639 H       
  41 H41            1.5946     1.5685     0.7909 H       
  42 H42           -1.9830     2.1650     1.2522 H       
  43 H43           -0.4147     2.0846     2.0959 H       
  44 H44           -1.1810     4.3791     2.2159 H       
  45 H45           -1.5334     4.4095     0.4736 H       
  46 H46            2.8222     2.1519    -1.3055 H       
  47 H47            1.6105     0.8748    -1.5678 H       
  48 H48            0.7488     5.3554     1.2064 H       
  49 H49            0.6623     2.8942    -5.6167 H       
  50 H50           -0.2490     3.7375    -4.3413 H       
  51 H51            1.8997     0.6947    -4.3135 H       
  52 H52            2.9414     1.9929    -4.9443 H       
  53 H53            3.0976     1.4706    -3.2498 H       
  54 H54            3.1651     4.1255    -3.6149 H       
  55 H55           -0.9872     6.0329    -5.9145 H       
  56 H56           -0.1385     6.0089    -7.4789 H       
  57 H57           -0.4402     4.4869    -6.6067 H       
  58 H58            1.5501     7.5969    -6.6396 H       
  59 H59            4.4583     6.1772    -4.0411 H       
@<TRIPOS>BOND
   1    1   18 2
   2    2   19 2
   3    3    8 1
   4    3   14 1
   5    3   15 1
   6    4   16 1
   7    4   18 am
   8    4   48 1
   9    5   19 am
  10    5   20 1
  11    5   21 1
  12    6   26 ar
  13    6   27 ar
  14    7    8 1
  15    7    9 1
  16    7   10 1
  17    7   28 1
  18    8   29 1
  19    8   30 1
  20    9   11 1
  21    9   31 1
  22    9   32 1
  23   10   12 1
  24   10   33 1
  25   10   34 1
  26   11   13 1
  27   11   35 1
  28   11   36 1
  29   12   13 1
  30   12   37 1
  31   12   38 1
  32   13   39 1
  33   13   40 1
  34   14   17 1
  35   14   18 1
  36   14   41 1
  37   15   16 1
  38   15   42 1
  39   15   43 1
  40   16   44 1
  41   16   45 1
  42   17   19 1
  43   17   46 1
  44   17   47 1
  45   20   22 1
  46   20   49 1
  47   20   50 1
  48   21   51 1
  49   21   52 1
  50   21   53 1
  51   22   23 ar
  52   22   24 ar
  53   23   25 1
  54   23   26 ar
  55   24   27 ar
  56   24   54 1
  57   25   55 1
  58   25   56 1
  59   25   57 1
  60   26   58 1
  61   27   59 1

#	End of record

#	Name: 16187640
#	Creating user name:	landrgr1
#	Creation time:	28. 01. 2015 13:52

#	Modifying user name:	landrgr1
#	Modification time:	28. 01. 2015 13:52

#	Program:	corina 3.48 0006  22.01.2010

@<TRIPOS>MOLECULE
16187640
  57   60    0    0    0
SMALL
NO_CHARGES


@<TRIPOS>ATOM
   1 O1            -0.0161     1.3381     0.0094 O.3     
   2 O2            -3.1359     1.4085     2.4491 O.3     
   3 O3             1.0565    -0.5939    -0.0112 O.2     
   4 O4            -6.7605    -2.2237    -6.4957 O.3     
   5 N5            -3.0555    -2.6759    -1.2619 N.3     
   6 N6            -5.8720    -2.9608    -6.1179 N.2     
   7 N7            -7.3055    -1.5557    -5.6400 N.2     
   8 C8            -1.2926    -0.7753     0.0102 C.3     
   9 C9            -0.9938    -2.2770    -0.0007 C.3     
  10 C10           -2.1099    -0.4164    -1.2339 C.3     
  11 C11           -2.3112    -3.0539    -0.0538 C.3     
  12 C12           -3.3949    -1.2473    -1.2513 C.3     
  13 C13           -2.0917    -0.4220     1.2663 C.3     
  14 C14            0.0021    -0.0041     0.0020 C.2     
  15 C15           -4.2601    -3.5021    -1.4182 C.3     
  16 C16           -2.3896     1.0786     1.2760 C.3     
  17 C17           -5.1207    -2.9327    -2.5164 C.ar    
  18 C18            1.2685     2.0148     0.0008 C.3     
  19 C19           -4.9305    -3.3592    -3.7895 C.ar    
  20 C20           -6.0932    -1.9782    -2.1921 C.ar    
  21 C21           -3.4846     2.7119     2.6123 C.ar    
  22 C22           -5.7309    -2.8325    -4.8217 C.ar    
  23 C23           -6.9001    -1.4279    -3.1328 C.ar    
  24 C24            1.0475     3.5287     0.0110 C.3     
  25 C25           -6.7621    -1.8217    -4.4779 C.ar    
  26 C26           -4.2098     3.1026     3.7286 C.ar    
  27 C27           -3.1112     3.6548     1.6657 C.ar    
  28 C28           -4.5631     4.4280     3.8922 C.ar    
  29 C29           -3.4669     4.9790     1.8339 C.ar    
  30 C30           -4.1950     5.3648     2.9443 C.ar    
  31 H31           -0.3914    -2.5218    -0.8755 H       
  32 H32           -0.4488    -2.5461     0.9041 H       
  33 H33           -2.3623     0.6437    -1.2102 H       
  34 H34           -1.5251    -0.6319    -2.1281 H       
  35 H35           -2.9071    -2.8191     0.8282 H       
  36 H36           -2.1015    -4.1233    -0.0761 H       
  37 H37           -3.9724    -1.0045    -2.1433 H       
  38 H38           -3.9858    -1.0210    -0.3637 H       
  39 H39           -3.0289    -0.9786     1.2691 H       
  40 H40           -1.5115    -0.6830     2.1514 H       
  41 H41           -3.9709    -4.5213    -1.6746 H       
  42 H42           -4.8206    -3.5077    -0.4833 H       
  43 H43           -2.9698     1.3396     0.3909 H       
  44 H44           -1.4524     1.6351     1.2732 H       
  45 H45            1.8379     1.7248     0.8838 H       
  46 H46            1.8209     1.7343    -0.8960 H       
  47 H47           -4.1720    -4.0958    -4.0098 H       
  48 H48           -6.2041    -1.6720    -1.1624 H       
  49 H49           -7.6416    -0.6942    -2.8530 H       
  50 H50            0.4951     3.8092     0.9078 H       
  51 H51            2.0118     4.0367     0.0045 H       
  52 H52            0.4781     3.8188    -0.8720 H       
  53 H53           -4.4981     2.3711     4.4690 H       
  54 H54           -2.5425     3.3539     0.7983 H       
  55 H55           -5.1275     4.7327     4.7611 H       
  56 H56           -3.1765     5.7135     1.0973 H       
  57 H57           -4.4727     6.4005     3.0736 H       
@<TRIPOS>BOND
   1    1   14 1
   2    1   18 1
   3    2   16 1
   4    2   21 1
   5    3   14 2
   6    4    6 1
   7    4    7 1
   8    5   11 1
   9    5   12 1
  10    5   15 1
  11    6   22 2
  12    7   25 2
  13    8    9 1
  14    8   10 1
  15    8   13 1
  16    8   14 1
  17    9   11 1
  18    9   31 1
  19    9   32 1
  20   10   12 1
  21   10   33 1
  22   10   34 1
  23   11   35 1
  24   11   36 1
  25   12   37 1
  26   12   38 1
  27   13   16 1
  28   13   39 1
  29   13   40 1
  30   15   17 1
  31   15   41 1
  32   15   42 1
  33   16   43 1
  34   16   44 1
  35   17   19 ar
  36   17   20 ar
  37   18   24 1
  38   18   45 1
  39   18   46 1
  40   19   22 ar
  41   19   47 1
  42   20   23 ar
  43   20   48 1
  44   21   26 ar
  45   21   27 ar
  46   22   25 ar
  47   23   25 ar
  48   23   49 1
  49   24   50 1
  50   24   51 1
  51   24   52 1
  52   26   28 ar
  53   26   53 1
  54   27   29 ar
  55   27   54 1
  56   28   30 ar
  57   28   55 1
  58   29   30 ar
  59   29   56 1
  60   30   57 1

#	End of record

#	Name: 16187611
#	Creating user name:	landrgr1
#	Creation time:	28. 01. 2015 13:52

#	Modifying user name:	landrgr1
#	Modification time:	28. 01. 2015 13:52

#	Program:	corina 3.48 0006  22.01.2010

@<TRIPOS>MOLECULE
16187611
  71   74    0    0    0
SMALL
NO_CHARGES


@<TRIPOS>ATOM
   1 S1             3.5625    -9.2072     2.7520 S.2     
   2 F2            -2.7986    -0.9076    10.0796 F       
   3 O3             1.2864    -8.9769    -1.6534 O.2     
   4 O4             1.0178    -6.5947    -2.6059 O.2     
   5 O5            -2.8383    -4.6474    -6.8024 O.3     
   6 N6             2.2115    -3.8106     4.2921 N.3     
   7 N7             2.9935    -7.2875     0.9376 N.am    
   8 N8             0.9733    -3.2269     6.7884 N.3     
   9 N9             2.2905    -9.3290     0.3783 N.am    
  10 N10           -0.4980    -5.1776    -1.8206 N.am    
  11 C11            3.2158    -4.4282     3.4157 C.3     
  12 C12            2.8409    -2.8838     5.2431 C.3     
  13 C13            1.4283    -4.8340     4.9984 C.3     
  14 C14            2.5679    -5.5603     2.6161 C.3     
  15 C15            2.3250    -7.1708    -0.3699 C.3     
  16 C16            3.6139    -6.2035     1.7033 C.3     
  17 C17            1.7566    -2.2035     6.0820 C.3     
  18 C18            0.3439    -4.1537     5.8374 C.3     
  19 C19            1.8826    -8.5890    -0.6715 C.2     
  20 C20            2.9181    -8.5824     1.2942 C.2     
  21 C21            1.1156    -6.2384    -0.2748 C.3     
  22 C22            0.0174    -2.6391     7.6225 C.ar    
  23 C23            2.0685   -10.7716     0.5041 C.3     
  24 C24            0.5426    -6.0172    -1.6510 C.2     
  25 C25           -0.8288    -3.4374     8.3810 C.ar    
  26 C26           -0.0834    -1.2560     7.6980 C.ar    
  27 C27            3.2465   -11.5249    -0.1168 C.3     
  28 C28           -1.7723    -2.8546     9.2042 C.ar    
  29 C29           -1.0284    -0.6776     8.5226 C.ar    
  30 C30           -1.8749    -1.4755     9.2736 C.ar    
  31 C31           -1.0909    -5.0430    -3.0829 C.ar    
  32 C32           -2.4627    -4.8563    -3.1896 C.ar    
  33 C33           -0.3063    -5.0900    -4.2274 C.ar    
  34 C34           -3.0464    -4.7238    -4.4340 C.ar    
  35 C35           -0.8915    -4.9583    -5.4713 C.ar    
  36 C36           -2.2628    -4.7775    -5.5774 C.ar    
  37 C37           -1.9715    -4.7126    -7.9366 C.3     
  38 H38            3.6099    -3.6782     2.7298 H       
  39 H39            4.0285    -4.8298     4.0210 H       
  40 H40            3.5142    -3.4366     5.8982 H       
  41 H41            3.4046    -2.1283     4.6957 H       
  42 H42            0.9621    -5.5003     4.2726 H       
  43 H43            2.0855    -5.4090     5.6507 H       
  44 H44            2.1738    -6.3102     3.3019 H       
  45 H45            1.7552    -5.1587     2.0108 H       
  46 H46            3.0241    -6.8178    -1.1279 H       
  47 H47            4.4266    -6.6051     2.3086 H       
  48 H48            4.0080    -5.4535     1.0175 H       
  49 H49            1.0993    -1.6285     5.4297 H       
  50 H50            2.2228    -1.5372     6.8078 H       
  51 H51           -0.2198    -4.9092     6.3848 H       
  52 H52           -0.3294    -3.6009     5.1823 H       
  53 H53            0.3582    -6.6899     0.3659 H       
  54 H54            1.4260    -5.2827     0.1474 H       
  55 H55            1.9834   -11.0356     1.5583 H       
  56 H56            1.1491   -11.0443    -0.0140 H       
  57 H57           -0.7494    -4.5131     8.3269 H       
  58 H58            0.5769    -0.6333     7.1127 H       
  59 H59            3.0814   -12.5983    -0.0232 H       
  60 H60            3.3316   -11.2610    -1.1710 H       
  61 H61            4.1659   -11.2523     0.4013 H       
  62 H62           -0.8363    -4.6665    -1.0688 H       
  63 H63           -2.4309    -3.4750     9.7940 H       
  64 H64           -1.1072     0.3979     8.5817 H       
  65 H65           -3.0730    -4.8155    -2.2995 H       
  66 H66            0.7614    -5.2304    -4.1450 H       
  67 H67           -4.1134    -4.5786    -4.5170 H       
  68 H68           -0.2813    -4.9956    -6.3616 H       
  69 H69           -2.5569    -4.5949    -8.8485 H       
  70 H70           -1.2313    -3.9149    -7.8745 H       
  71 H71           -1.4651    -5.6777    -7.9519 H       
@<TRIPOS>BOND
   1    1   20 2
   2    2   30 1
   3    3   19 2
   4    4   24 2
   5    5   36 1
   6    5   37 1
   7    6   11 1
   8    6   12 1
   9    6   13 1
  10    7   15 1
  11    7   16 1
  12    7   20 am
  13    8   17 1
  14    8   18 1
  15    8   22 1
  16    9   19 am
  17    9   20 am
  18    9   23 1
  19   10   24 am
  20   10   31 1
  21   10   62 1
  22   11   14 1
  23   11   38 1
  24   11   39 1
  25   12   17 1
  26   12   40 1
  27   12   41 1
  28   13   18 1
  29   13   42 1
  30   13   43 1
  31   14   16 1
  32   14   44 1
  33   14   45 1
  34   15   19 1
  35   15   21 1
  36   15   46 1
  37   16   47 1
  38   16   48 1
  39   17   49 1
  40   17   50 1
  41   18   51 1
  42   18   52 1
  43   21   24 1
  44   21   53 1
  45   21   54 1
  46   22   25 ar
  47   22   26 ar
  48   23   27 1
  49   23   55 1
  50   23   56 1
  51   25   28 ar
  52   25   57 1
  53   26   29 ar
  54   26   58 1
  55   27   59 1
  56   27   60 1
  57   27   61 1
  58   28   30 ar
  59   28   63 1
  60   29   30 ar
  61   29   64 1
  62   31   32 ar
  63   31   33 ar
  64   32   34 ar
  65   32   65 1
  66   33   35 ar
  67   33   66 1
  68   34   36 ar
  69   34   67 1
  70   35   36 ar
  71   35   68 1
  72   37   69 1
  73   37   70 1
  74   37   71 1

#	End of record

#	Name: 16187581
#	Creating user name:	landrgr1
#	Creation time:	28. 01. 2015 13:52

#	Modifying user name:	landrgr1
#	Modification time:	28. 01. 2015 13:52

#	Program:	corina 3.48 0006  22.01.2010

@<TRIPOS>MOLECULE
16187581
  54   56    0    0    0
SMALL
NO_CHARGES


@<TRIPOS>ATOM
   1 S1            -1.5977     1.1455    -3.9458 S.o2    
   2 O2            -1.8326     1.1467    -5.3472 O.2     
   3 O3            -0.4142     0.5544    -3.4271 O.2     
   4 O4            -6.0108     6.6051    -2.3854 O.3     
   5 O5            -7.6506     7.8474    -4.0291 O.3     
   6 O6            -9.2229     3.0292    -6.1565 O.3     
   7 N7            -2.8809     3.7804    -1.3217 N.3     
   8 N8            -5.8927     4.4523    -2.4518 N.2     
   9 C9            -3.0311     2.8373    -2.4379 C.3     
  10 C10           -1.7553     2.8509    -3.3033 C.3     
  11 C11           -3.2407     1.4090    -1.8888 C.3     
  12 C12           -3.0554     0.4415    -3.0862 C.3     
  13 C13           -4.1651     4.0030    -0.6441 C.3     
  14 C14           -1.8591     3.3159    -0.3740 C.3     
  15 C15           -5.0421     4.8761    -1.5041 C.2     
  16 C16           -1.4515     4.4557     0.5237 C.2     
  17 C17           -5.1116     6.2185    -1.4582 C.2     
  18 C18           -6.4799     5.4977    -2.9863 C.2     
  19 C19           -4.3291     7.1227    -0.5409 C.3     
  20 C20           -1.5355     4.3271     1.8247 C.2     
  21 C21           -7.4867     5.4631    -4.0664 C.ar    
  22 C22           -8.0391     6.6547    -4.5513 C.ar    
  23 C23           -7.8877     4.2427    -4.6122 C.ar    
  24 C24           -8.8312     4.2174    -5.6237 C.ar    
  25 C25           -8.9831     6.6148    -5.5646 C.ar    
  26 C26           -9.3791     5.4028    -6.0965 C.ar    
  27 C27           -8.2565     9.0218    -4.5729 C.3     
  28 C28          -10.2006     3.0758    -7.1976 C.3     
  29 H29           -3.8894     3.1230    -3.0460 H       
  30 H30           -0.8881     3.1078    -2.6950 H       
  31 H31           -1.8638     3.5570    -4.1265 H       
  32 H32           -2.5005     1.1928    -1.1185 H       
  33 H33           -4.2460     1.3103    -1.4793 H       
  34 H34           -3.9314     0.4563    -3.7347 H       
  35 H35           -2.8477    -0.5701    -2.7376 H       
  36 H36           -4.6583     3.0455    -0.4766 H       
  37 H37           -3.9905     4.4941     0.3132 H       
  38 H38           -2.2658     2.5050     0.2303 H       
  39 H39           -0.9890     2.9578    -0.9243 H       
  40 H40           -1.0901     5.3785     0.0945 H       
  41 H41           -4.6603     8.1523    -0.6764 H       
  42 H42           -4.4937     6.8212     0.4936 H       
  43 H43           -3.2675     7.0485    -0.7765 H       
  44 H44           -1.8179     3.3783     2.2564 H       
  45 H45           -1.3223     5.1699     2.4655 H       
  46 H46           -7.4620     3.3201    -4.2460 H       
  47 H47           -9.4101     7.5331    -5.9397 H       
  48 H48          -10.1148     5.3773    -6.8867 H       
  49 H49           -8.0373     9.0835    -5.6388 H       
  50 H50           -9.3355     8.9753    -4.4259 H       
  51 H51           -7.8587     9.9025    -4.0686 H       
  52 H52          -10.4231     2.0627    -7.5327 H       
  53 H53          -11.1109     3.5419    -6.8205 H       
  54 H54           -9.8136     3.6583    -8.0337 H       
@<TRIPOS>BOND
   1    1    2 2
   2    1    3 2
   3    1   10 1
   4    1   12 1
   5    4   17 1
   6    4   18 1
   7    5   22 1
   8    5   27 1
   9    6   24 1
  10    6   28 1
  11    7    9 1
  12    7   13 1
  13    7   14 1
  14    8   15 1
  15    8   18 2
  16    9   10 1
  17    9   11 1
  18    9   29 1
  19   10   30 1
  20   10   31 1
  21   11   12 1
  22   11   32 1
  23   11   33 1
  24   12   34 1
  25   12   35 1
  26   13   15 1
  27   13   36 1
  28   13   37 1
  29   14   16 1
  30   14   38 1
  31   14   39 1
  32   15   17 2
  33   16   20 2
  34   16   40 1
  35   17   19 1
  36   18   21 1
  37   19   41 1
  38   19   42 1
  39   19   43 1
  40   20   44 1
  41   20   45 1
  42   21   22 ar
  43   21   23 ar
  44   22   25 ar
  45   23   24 ar
  46   23   46 1
  47   24   26 ar
  48   25   26 ar
  49   25   47 1
  50   26   48 1
  51   27   49 1
  52   27   50 1
  53   27   51 1
  54   28   52 1
  55   28   53 1
  56   28   54 1

#	End of record

#	Name: 16187571
#	Creating user name:	landrgr1
#	Creation time:	28. 01. 2015 13:52

#	Modifying user name:	landrgr1
#	Modification time:	28. 01. 2015 13:52

#	Program:	corina 3.48 0006  22.01.2010

@<TRIPOS>MOLECULE
16187571
  61   63    0    0    0
SMALL
NO_CHARGES


@<TRIPOS>ATOM
   1 F1            -0.0533     3.7275     3.0355 F       
   2 F2             0.7450     2.0904     1.6565 F       
   3 F3            -0.6270     1.5465     3.4003 F       
   4 O4            -0.1918     2.2192    -0.8628 O.3     
   5 O5             1.4649     0.7656    -0.7028 O.2     
   6 N6            -1.7948    -2.7200    -0.8840 N.3     
   7 N7            -0.2626    -6.6137    -1.7968 N.pl3   
   8 N8             0.6352    -6.9904    -0.7896 N.2     
   9 C9            -0.6720    -0.1302    -0.2751 C.3     
  10 C10            0.1152    -1.4259    -0.0607 C.3     
  11 C11           -1.6713    -0.3324    -1.4175 C.3     
  12 C12           -0.8606    -2.5663     0.2385 C.3     
  13 C13           -2.5953    -1.5045    -1.0789 C.3     
  14 C14           -1.4265     0.2278     1.0069 C.3     
  15 C15           -2.6575    -3.8937    -0.6939 C.3     
  16 C16            0.2789     0.9841    -0.6292 C.2     
  17 C17           -1.7914    -5.1491    -0.5724 C.3     
  18 C18           -2.0673     1.5828     0.8509 C.ar    
  19 C19           -3.4832    -3.7184     0.5822 C.3     
  20 C20           -0.9992    -5.3493    -1.8660 C.3     
  21 C21           -1.5523     2.6731     1.5273 C.ar    
  22 C22           -3.1665     1.7368     0.0272 C.ar    
  23 C23            0.7816     3.2430    -1.1985 C.3     
  24 C24           -2.1400     3.9158     1.3842 C.ar    
  25 C25           -0.3504     2.5064     2.4209 C.3     
  26 C26           -3.7544     2.9799    -0.1160 C.ar    
  27 C27           -3.2427     4.0688     0.5644 C.ar    
  28 C28           -0.3245    -7.6188    -2.6951 C.2     
  29 C29            0.0631     4.5741    -1.4282 C.3     
  30 C30            0.5055    -8.6007    -2.2732 C.2     
  31 C31            1.0909    -8.1835    -1.0734 C.2     
  32 H32            0.6832    -1.6598    -0.9611 H       
  33 H33            0.7985    -1.3018     0.7794 H       
  34 H34           -2.2644     0.5729    -1.5467 H       
  35 H35           -1.1314    -0.5492    -2.3392 H       
  36 H36           -1.4185    -2.3380     1.1467 H       
  37 H37           -0.3042    -3.4932     0.3776 H       
  38 H38           -3.2989    -1.6603    -1.8967 H       
  39 H39           -3.1451    -1.2812    -0.1646 H       
  40 H40           -2.1976    -0.5192     1.1953 H       
  41 H41           -0.7295     0.2498     1.8446 H       
  42 H42           -3.3265    -3.9951    -1.5485 H       
  43 H43           -1.1003    -5.0343     0.2627 H       
  44 H44           -2.4296    -6.0155    -0.3994 H       
  45 H45           -2.8143    -3.6169     1.4367 H       
  46 H46           -4.1003    -2.8240     0.4956 H       
  47 H47           -4.1234    -4.5892     0.7232 H       
  48 H48           -0.2965    -4.5258    -1.9928 H       
  49 H49           -1.6858    -5.3746    -2.7122 H       
  50 H50           -3.5659     0.8860    -0.5049 H       
  51 H51            1.4928     3.3506    -0.3796 H       
  52 H52            1.3129     2.9556    -2.1058 H       
  53 H53           -1.7381     4.7674     1.9132 H       
  54 H54           -4.6130     3.1002    -0.7599 H       
  55 H55           -3.7022     5.0398     0.4529 H       
  56 H56           -0.9288    -7.6366    -3.5900 H       
  57 H57            0.7938     5.3427    -1.6802 H       
  58 H58           -0.6482     4.4665    -2.2471 H       
  59 H59           -0.4682     4.8615    -0.5209 H       
  60 H60            0.6814    -9.5421    -2.7725 H       
  61 H61            1.8017    -8.7461    -0.4864 H       
@<TRIPOS>BOND
   1    1   25 1
   2    2   25 1
   3    3   25 1
   4    4   16 1
   5    4   23 1
   6    5   16 2
   7    6   12 1
   8    6   13 1
   9    6   15 1
  10    7    8 1
  11    7   20 1
  12    7   28 1
  13    8   31 2
  14    9   10 1
  15    9   11 1
  16    9   14 1
  17    9   16 1
  18   10   12 1
  19   10   32 1
  20   10   33 1
  21   11   13 1
  22   11   34 1
  23   11   35 1
  24   12   36 1
  25   12   37 1
  26   13   38 1
  27   13   39 1
  28   14   18 1
  29   14   40 1
  30   14   41 1
  31   15   17 1
  32   15   19 1
  33   15   42 1
  34   17   20 1
  35   17   43 1
  36   17   44 1
  37   18   21 ar
  38   18   22 ar
  39   19   45 1
  40   19   46 1
  41   19   47 1
  42   20   48 1
  43   20   49 1
  44   21   24 ar
  45   21   25 1
  46   22   26 ar
  47   22   50 1
  48   23   29 1
  49   23   51 1
  50   23   52 1
  51   24   27 ar
  52   24   53 1
  53   26   27 ar
  54   26   54 1
  55   27   55 1
  56   28   30 2
  57   28   56 1
  58   29   57 1
  59   29   58 1
  60   29   59 1
  61   30   31 1
  62   30   60 1
  63   31   61 1

#	End of record

#	Name: 16187558
#	Creating user name:	landrgr1
#	Creation time:	28. 01. 2015 13:52

#	Modifying user name:	landrgr1
#	Modification time:	28. 01. 2015 13:52

#	Program:	corina 3.48 0006  22.01.2010

@<TRIPOS>MOLECULE
16187558
  56   58    0    0    0
SMALL
NO_CHARGES


@<TRIPOS>ATOM
   1 O1            -5.9667    -5.0045     2.7607 O.2     
   2 O2            -2.7333    -5.5957     2.9560 O.2     
   3 O3            -0.1549     1.4212     1.4480 O.3     
   4 O4             2.4156    -2.5525     1.9156 O.3     
   5 N5            -3.0322    -3.2402     1.8621 N.3     
   6 N6            -4.8907    -3.4669     3.8969 N.am    
   7 N7            -2.6371    -7.3393     1.5875 N.am    
   8 N8            -3.0319   -10.1783     3.2912 N.pl3   
   9 N9            -3.2243    -8.4410     4.5567 N.2     
  10 C10           -4.2674    -3.9644     1.5339 C.3     
  11 C11           -3.3438    -2.0351     2.6478 C.3     
  12 C12           -3.9132    -5.3249     0.9301 C.3     
  13 C13           -3.8377    -2.4644     4.0306 C.3     
  14 C14           -2.2843    -2.8965     0.6454 C.3     
  15 C15           -5.0883    -4.1684     2.7757 C.2     
  16 C16           -1.0774    -2.0725     1.0135 C.ar    
  17 C17           -3.0524    -6.0953     1.8979 C.2     
  18 C18            0.1227    -2.6956     1.2975 C.ar    
  19 C19           -1.1716    -0.6948     1.0621 C.ar    
  20 C20           -1.8003    -8.0882     2.5283 C.3     
  21 C21           -3.0226    -7.9427     0.3094 C.3     
  22 C22           -0.0618     0.0662     1.4012 C.ar    
  23 C23            1.2354    -1.9391     1.6372 C.ar    
  24 C24            1.1420    -0.5569     1.6918 C.ar    
  25 C25           -2.6790    -8.8854     3.4576 C.2     
  26 C26           -3.8302   -10.5195     4.3495 C.2     
  27 C27           -3.9376    -9.4241     5.1256 C.2     
  28 C28            1.0272     2.1407     1.8044 C.3     
  29 C29            3.5191    -1.7114     2.2577 C.3     
  30 H30           -4.8442    -3.3871     0.8114 H       
  31 H31           -2.4465    -1.4253     2.7532 H       
  32 H32           -4.1214    -1.4612     2.1438 H       
  33 H33           -4.8278    -5.8840     0.7328 H       
  34 H34           -3.3689    -5.1778    -0.0027 H       
  35 H35           -4.2300    -1.5963     4.5603 H       
  36 H36           -3.0068    -2.8859     4.5962 H       
  37 H37           -1.9618    -3.8106     0.1468 H       
  38 H38           -2.9247    -2.3235    -0.0251 H       
  39 H39           -5.4729    -3.6315     4.6551 H       
  40 H40            0.1947    -3.7724     1.2556 H       
  41 H41           -2.1097    -0.2098     0.8357 H       
  42 H42           -1.1481    -8.7645     1.9757 H       
  43 H43           -1.1943    -7.3926     3.1089 H       
  44 H44           -2.2751    -7.7015    -0.4463 H       
  45 H45           -3.0879    -9.0248     0.4235 H       
  46 H46           -3.9916    -7.5508     0.0002 H       
  47 H47            2.0068     0.0336     1.9559 H       
  48 H48           -2.7717   -10.7560     2.5568 H       
  49 H49           -4.2862   -11.4821     4.5279 H       
  50 H50           -4.4991    -9.3505     6.0452 H       
  51 H51            1.8148     1.9260     1.0822 H       
  52 H52            0.8156     3.2100     1.8042 H       
  53 H53            1.3527     1.8350     2.7988 H       
  54 H54            3.7293    -1.0335     1.4305 H       
  55 H55            3.2725    -1.1328     3.1480 H       
  56 H56            4.3970    -2.3263     2.4556 H       
@<TRIPOS>BOND
   1    1   15 2
   2    2   17 2
   3    3   22 1
   4    3   28 1
   5    4   23 1
   6    4   29 1
   7    5   10 1
   8    5   11 1
   9    5   14 1
  10    6   13 1
  11    6   15 am
  12    6   39 1
  13    7   17 am
  14    7   20 1
  15    7   21 1
  16    8   25 1
  17    8   26 1
  18    8   48 1
  19    9   25 2
  20    9   27 1
  21   10   12 1
  22   10   15 1
  23   10   30 1
  24   11   13 1
  25   11   31 1
  26   11   32 1
  27   12   17 1
  28   12   33 1
  29   12   34 1
  30   13   35 1
  31   13   36 1
  32   14   16 1
  33   14   37 1
  34   14   38 1
  35   16   18 ar
  36   16   19 ar
  37   18   23 ar
  38   18   40 1
  39   19   22 ar
  40   19   41 1
  41   20   25 1
  42   20   42 1
  43   20   43 1
  44   21   44 1
  45   21   45 1
  46   21   46 1
  47   22   24 ar
  48   23   24 ar
  49   24   47 1
  50   26   27 2
  51   26   49 1
  52   27   50 1
  53   28   51 1
  54   28   52 1
  55   28   53 1
  56   29   54 1
  57   29   55 1
  58   29   56 1

#	End of record

#	Name: 16187415
#	Creating user name:	landrgr1
#	Creation time:	28. 01. 2015 13:52

#	Modifying user name:	landrgr1
#	Modification time:	28. 01. 2015 13:52

#	Program:	corina 3.48 0006  22.01.2010

@<TRIPOS>MOLECULE
16187415
  42   45    0    0    0
SMALL
NO_CHARGES


@<TRIPOS>ATOM
   1 Br1            0.2567    -4.3861     4.6410 Br      
   2 S2            -0.0218     1.7540     0.0117 S.3     
   3 O3            -4.9275     0.4933     2.1789 O.3     
   4 N4            -3.3580    -2.4845    -0.3774 N.3     
   5 N5            -1.0061    -2.1432    -0.0003 N.2     
   6 C6            -3.5904    -1.2692     0.4216 C.3     
   7 C7            -2.5388    -0.2280     0.0261 C.3     
   8 C8            -2.0921    -3.1153     0.0153 C.3     
   9 C9            -1.1794    -0.8700     0.0086 C.2     
  10 C10           -4.9696    -0.7313     0.1394 C.ar    
  11 C11           -2.2302    -3.6831     1.4044 C.ar    
  12 C12            0.0021    -0.0041     0.0020 C.2     
  13 C13           -5.5761     0.1320     1.0406 C.ar    
  14 C14           -5.6288    -1.0929    -1.0193 C.ar    
  15 C15           -1.1265    -3.7595     2.2325 C.ar    
  16 C16           -3.4624    -4.1223     1.8522 C.ar    
  17 C17           -6.8456     0.6253     0.7780 C.ar    
  18 C18           -6.8944    -0.5997    -1.2788 C.ar    
  19 C19            1.2991    -0.4331    -0.0127 C.2     
  20 C20           -7.5031     0.2561    -0.3797 C.ar    
  21 C21           -1.2534    -4.2807     3.5077 C.ar    
  22 C22           -3.5897    -4.6431     3.1262 C.ar    
  23 C23            2.2123     0.5963    -0.0159 C.2     
  24 C24           -2.4850    -4.7252     3.9532 C.ar    
  25 C25            1.6828     1.8241    -0.0042 C.2     
  26 H26           -3.4961    -1.5026     1.4821 H       
  27 H27           -2.7690     0.1625    -0.9652 H       
  28 H28           -2.5459     0.5881     0.7487 H       
  29 H29           -1.8619    -3.9221    -0.6805 H       
  30 H30           -4.1276    -3.1305    -0.2854 H       
  31 H31           -5.1552    -1.7610    -1.7234 H       
  32 H32           -0.1649    -3.4126     1.8840 H       
  33 H33           -4.3257    -4.0580     1.2065 H       
  34 H34           -7.3199     1.2971     1.4781 H       
  35 H35           -7.4080    -0.8833    -2.1855 H       
  36 H36            1.5797    -1.4760    -0.0206 H       
  37 H37           -8.4917     0.6396    -0.5845 H       
  38 H38           -4.5524    -4.9858     3.4757 H       
  39 H39            3.2786     0.4251    -0.0266 H       
  40 H40           -2.5845    -5.1322     4.9486 H       
  41 H41            2.2577     2.7384    -0.0055 H       
  42 H42           -4.3841     1.2879     2.0867 H       
@<TRIPOS>BOND
   1    1   21 1
   2    2   12 1
   3    2   25 1
   4    3   13 1
   5    3   42 1
   6    4    6 1
   7    4    8 1
   8    4   30 1
   9    5    8 1
  10    5    9 2
  11    6    7 1
  12    6   10 1
  13    6   26 1
  14    7    9 1
  15    7   27 1
  16    7   28 1
  17    8   11 1
  18    8   29 1
  19    9   12 1
  20   10   13 ar
  21   10   14 ar
  22   11   15 ar
  23   11   16 ar
  24   12   19 2
  25   13   17 ar
  26   14   18 ar
  27   14   31 1
  28   15   21 ar
  29   15   32 1
  30   16   22 ar
  31   16   33 1
  32   17   20 ar
  33   17   34 1
  34   18   20 ar
  35   18   35 1
  36   19   23 1
  37   19   36 1
  38   20   37 1
  39   21   24 ar
  40   22   24 ar
  41   22   38 1
  42   23   25 2
  43   23   39 1
  44   24   40 1
  45   25   41 1

#	End of record

#	Name: 16187400
#	Creating user name:	landrgr1
#	Creation time:	28. 01. 2015 13:52

#	Modifying user name:	landrgr1
#	Modification time:	28. 01. 2015 13:52

#	Program:	corina 3.48 0006  22.01.2010

@<TRIPOS>MOLECULE
16187400
  29   29    0    0    0
SMALL
NO_CHARGES


@<TRIPOS>ATOM
   1 Br1            4.7006    -8.3751    -0.0905 Br      
   2 O2            -0.0143     1.2044     0.0087 O.3     
   3 O3            -1.1352    -7.4661    -0.0165 O.2     
   4 O4             2.9566    -2.0212    -0.0378 O.2     
   5 N5             1.3789    -4.1636    -0.0342 N.pl3   
   6 N6             0.8960    -2.8485    -0.0222 N.am    
   7 N7             0.0021    -0.0041     0.0020 N.2     
   8 N8             1.0634     1.7510     0.0013 N.2     
   9 N9             3.3893     1.0291    -0.0252 N.pl3   
  10 C10            1.0010    -6.5050    -0.0435 C.2     
  11 C11            0.5195    -5.1937    -0.0315 C.2     
  12 C12            2.3893    -6.7641    -0.0586 C.2     
  13 C13            0.0749    -7.6446    -0.0346 C.2     
  14 C14            2.8383    -8.0476    -0.0697 C.2     
  15 C15            0.6086    -8.9447    -0.0468 C.2     
  16 C16            1.2489    -0.4232    -0.0121 C.2     
  17 C17            1.7594    -1.8136    -0.0249 C.2     
  18 C18            1.9575    -9.1264    -0.0666 C.2     
  19 C19            2.0136     0.8448    -0.0126 C.2     
  20 H20           -0.5445    -5.0092    -0.0200 H       
  21 H21            3.0928    -5.9446    -0.0617 H       
  22 H22            2.3346    -4.3293    -0.0446 H       
  23 H23           -0.0515    -9.7995    -0.0410 H       
  24 H24           -0.0597    -2.6828    -0.0118 H       
  25 H25            2.3542   -10.1309    -0.0757 H       
  26 H26            3.7585     1.9261    -0.0246 H       
  27 H27            3.9815     0.2609    -0.0345 H       
  28 Cl28           9.7006     6.9261     5.0087 Cl      
  29 H29            9.7006     8.2961     5.0087 H       
@<TRIPOS>BOND
   1    1   14 1
   2    2    7 1
   3    2    8 1
   4    3   13 2
   5    4   17 2
   6    5    6 1
   7    5   11 1
   8    5   22 1
   9    6   17 am
  10    6   24 1
  11    7   16 2
  12    8   19 2
  13    9   19 1
  14    9   26 1
  15    9   27 1
  16   10   11 2
  17   10   12 1
  18   10   13 1
  19   11   20 1
  20   12   14 2
  21   12   21 1
  22   13   15 1
  23   14   18 1
  24   15   18 2
  25   15   23 1
  26   16   17 1
  27   16   19 1
  28   18   25 1
  29   28   29 1

#	End of record

#	Name: 16187195
#	Creating user name:	landrgr1
#	Creation time:	28. 01. 2015 13:52

#	Modifying user name:	landrgr1
#	Modification time:	28. 01. 2015 13:52

#	Program:	corina 3.48 0006  22.01.2010

@<TRIPOS>MOLECULE
16187195
  54   56    0    0    0
SMALL
NO_CHARGES


@<TRIPOS>ATOM
   1 S1            -0.0659     1.4383    -0.1497 S.o2    
   2 O2            -0.1727     0.0226    -0.2104 O.2     
   3 O3             1.1782     2.1218    -0.0842 O.2     
   4 O4            -3.1536     3.0746    -2.6291 O.3     
   5 O5            -3.6442    -0.6455     3.4090 O.2     
   6 O6            -4.9211     1.1979     3.8271 O.2     
   7 O7            -6.2213     7.2235    11.2171 O.2     
   8 O8            -4.7804     5.6165    10.4787 O.2     
   9 N9            -0.8516     2.0242    -1.4845 N.am    
  10 N10           -3.1580     3.1433     4.5890 N.pl3   
  11 N11           -3.8024     0.6618     3.3848 N.pl3   
  12 N12           -2.9494     4.3040     5.1119 N.2     
  13 N13           -5.1681     6.8749    10.5073 N.pl3   
  14 C14           -0.9879     1.9467     1.2632 C.ar    
  15 C15           -1.9980     1.1366     1.7555 C.ar    
  16 C16           -0.6955     3.1524     1.8804 C.ar    
  17 C17           -2.7231     1.5284     2.8604 C.ar    
  18 C18           -0.9988     3.4050    -1.6600 C.ar    
  19 C19           -2.4371     2.7458     3.4842 C.ar    
  20 C20           -1.4123     3.5556     2.9861 C.ar    
  21 C21           -2.1604     3.9163    -2.2356 C.ar    
  22 C22            0.0086     4.2685    -1.2563 C.ar    
  23 C23           -2.3007     5.2831    -2.4063 C.ar    
  24 C24           -0.1393     5.6321    -1.4303 C.ar    
  25 C25           -1.2895     6.1380    -2.0061 C.ar    
  26 C26           -3.9391     7.6027     8.4468 C.ar    
  27 C27           -4.4202     7.8974     9.7416 C.ar    
  28 C28           -4.1667     6.3364     7.8763 C.2     
  29 C29           -3.2329     8.5913     7.7271 C.ar    
  30 C30           -4.3153     3.6693    -3.2112 C.3     
  31 C31           -3.6521     4.6914     6.1887 C.2     
  32 C32           -4.1928     9.1292    10.2834 C.ar    
  33 C33           -3.4295     5.9299     6.7466 C.2     
  34 C34           -3.0237     9.8175     8.2896 C.ar    
  35 C35           -3.4923    10.0908     9.5673 C.ar    
  36 H36           -2.2182     0.1962     1.2723 H       
  37 H37           -1.2099     1.4105    -2.1447 H       
  38 H38            0.0963     3.7773     1.4943 H       
  39 H39           -1.1835     4.4955     3.4662 H       
  40 H40            0.9082     3.8759    -0.8058 H       
  41 H41           -3.8224     2.5504     4.9736 H       
  42 H42           -3.1997     5.6820    -2.8525 H       
  43 H43            0.6458     6.3037    -1.1156 H       
  44 H44           -1.4008     7.2038    -2.1401 H       
  45 H45           -4.9064     5.6762     8.3046 H       
  46 H46           -2.8597     8.3781     6.7363 H       
  47 H47           -5.0273     2.8889    -3.4796 H       
  48 H48           -4.7744     4.3486    -2.4929 H       
  49 H49           -4.0303     4.2242    -4.1050 H       
  50 H50           -4.3918     4.0313     6.6170 H       
  51 H51           -4.5596     9.3571    11.2733 H       
  52 H52           -2.6898     6.5901     6.3184 H       
  53 H53           -2.4836    10.5753     7.7415 H       
  54 H54           -3.3183    11.0628    10.0048 H       
@<TRIPOS>BOND
   1    1    2 2
   2    1    3 2
   3    1    9 am
   4    1   14 1
   5    4   21 1
   6    4   30 1
   7    5   11 2
   8    6   11 2
   9    7   13 2
  10    8   13 2
  11    9   18 1
  12    9   37 1
  13   10   12 1
  14   10   19 1
  15   10   41 1
  16   11   17 1
  17   12   31 2
  18   13   27 1
  19   14   15 ar
  20   14   16 ar
  21   15   17 ar
  22   15   36 1
  23   16   20 ar
  24   16   38 1
  25   17   19 ar
  26   18   21 ar
  27   18   22 ar
  28   19   20 ar
  29   20   39 1
  30   21   23 ar
  31   22   24 ar
  32   22   40 1
  33   23   25 ar
  34   23   42 1
  35   24   25 ar
  36   24   43 1
  37   25   44 1
  38   26   27 ar
  39   26   28 1
  40   26   29 ar
  41   27   32 ar
  42   28   33 2
  43   28   45 1
  44   29   34 ar
  45   29   46 1
  46   30   47 1
  47   30   48 1
  48   30   49 1
  49   31   33 1
  50   31   50 1
  51   32   35 ar
  52   32   51 1
  53   33   52 1
  54   34   35 ar
  55   34   53 1
  56   35   54 1

#	End of record

#	Name: 16187120
#	Creating user name:	landrgr1
#	Creation time:	28. 01. 2015 13:52

#	Modifying user name:	landrgr1
#	Modification time:	28. 01. 2015 13:52

#	Program:	corina 3.48 0006  22.01.2010

@<TRIPOS>MOLECULE
16187120
  51   53    0    0    0
SMALL
NO_CHARGES


@<TRIPOS>ATOM
   1 Cl1           12.3542     0.1938    -0.1086 Cl      
   2 S2            -0.0227     1.8216     0.0121 S.3     
   3 O3            10.1438     4.0380    -0.0718 O.3     
   4 O4             8.8424     6.4616    -0.0486 O.3     
   5 O5             1.9275    -1.4451    -0.0245 O.2     
   6 O6            -2.9523    -0.5998    -2.2181 O.3     
   7 O7            -2.6043     0.3930    -0.2747 O.2     
   8 N8             2.2430     0.7489    -0.0153 N.2     
   9 N9             2.4590     3.1294    -0.0050 N.pl3   
  10 N10            3.8594     3.0918    -0.0185 N.2     
  11 C11            0.0021    -0.0041     0.0020 C.3     
  12 C12           -0.6798    -0.5496    -1.2543 C.3     
  13 C13            1.4849    -0.3128    -0.0138 C.2     
  14 C14            8.7851     4.0780    -0.0591 C.ar    
  15 C15            8.1262     5.3055    -0.0476 C.ar    
  16 C16            1.7452     1.9663    -0.0040 C.2     
  17 C17            6.0120     4.1586    -0.0337 C.ar    
  18 C18           10.7547     2.7462    -0.0831 C.3     
  19 C19            6.7446     5.3484    -0.0347 C.ar    
  20 C20           12.2538     2.8996    -0.0962 C.ar    
  21 C21            8.0580     2.8965    -0.0638 C.ar    
  22 C22            6.6796     2.9312    -0.0510 C.ar    
  23 C23           -2.1491    -0.2175    -1.2128 C.2     
  24 C24            4.5384     4.1981    -0.0195 C.2     
  25 C25           13.0641     1.7780    -0.1086 C.ar    
  26 C26           12.8195     4.1604    -0.1015 C.ar    
  27 C27            8.1017     7.6836    -0.0364 C.3     
  28 C28           14.4401     1.9196    -0.1206 C.ar    
  29 C29           14.1949     4.3013    -0.1140 C.ar    
  30 C30           15.0049     3.1813    -0.1202 C.ar    
  31 C31            9.0708     8.8675    -0.0396 C.3     
  32 H32           -0.4696    -0.4024     0.9003 H       
  33 H33           -0.2297    -0.0968    -2.1377 H       
  34 H34           -0.5529    -1.6314    -1.2959 H       
  35 H35           10.4538     2.1941     0.8073 H       
  36 H36           10.4374     2.2020    -0.9726 H       
  37 H37            6.2327     6.2993    -0.0251 H       
  38 H38            8.5729     1.9472    -0.0769 H       
  39 H39            6.1161     2.0099    -0.0499 H       
  40 H40            1.9968     3.9822     0.0037 H       
  41 H41            4.0238     5.1476    -0.0098 H       
  42 H42           12.1872     5.0359    -0.0963 H       
  43 H43            7.4661     7.7320    -0.9206 H       
  44 H44            7.4818     7.7238     0.8593 H       
  45 H45           15.0731     1.0445    -0.1299 H       
  46 H46           14.6365     5.2869    -0.1189 H       
  47 H47           16.0791     3.2920    -0.1295 H       
  48 H48            8.5058     9.7995    -0.0303 H       
  49 H49            9.7064     8.8190     0.8446 H       
  50 H50            9.6907     8.8272    -0.9353 H       
  51 H51           -3.8873    -0.3638    -2.1469 H       
@<TRIPOS>BOND
   1    1   25 1
   2    2   11 1
   3    2   16 1
   4    3   14 1
   5    3   18 1
   6    4   15 1
   7    4   27 1
   8    5   13 2
   9    6   23 1
  10    6   51 1
  11    7   23 2
  12    8   13 1
  13    8   16 2
  14    9   10 1
  15    9   16 1
  16    9   40 1
  17   10   24 2
  18   11   12 1
  19   11   13 1
  20   11   32 1
  21   12   23 1
  22   12   33 1
  23   12   34 1
  24   14   15 ar
  25   14   21 ar
  26   15   19 ar
  27   17   19 ar
  28   17   22 ar
  29   17   24 1
  30   18   20 1
  31   18   35 1
  32   18   36 1
  33   19   37 1
  34   20   25 ar
  35   20   26 ar
  36   21   22 ar
  37   21   38 1
  38   22   39 1
  39   24   41 1
  40   25   28 ar
  41   26   29 ar
  42   26   42 1
  43   27   31 1
  44   27   43 1
  45   27   44 1
  46   28   30 ar
  47   28   45 1
  48   29   30 ar
  49   29   46 1
  50   30   47 1
  51   31   48 1
  52   31   49 1
  53   31   50 1

#	End of record

#	Name: 16187108
#	Creating user name:	landrgr1
#	Creation time:	28. 01. 2015 13:52

#	Modifying user name:	landrgr1
#	Modification time:	28. 01. 2015 13:52

#	Program:	corina 3.48 0006  22.01.2010

@<TRIPOS>MOLECULE
16187108
  33   35    0    0    0
SMALL
NO_CHARGES


@<TRIPOS>ATOM
   1 Br1           10.1041     8.5973     0.0535 Br      
   2 S2             0.2470     0.9932    -0.3384 S.3     
   3 S3             2.7405     2.9412    -0.3672 S.3     
   4 O4             3.3942    -2.4454     0.5342 O.2     
   5 O5             4.8358     4.7899    -0.4236 O.2     
   6 N6             1.7926    -0.9230     0.1259 N.am    
   7 N7             2.5612     0.2289     0.0316 N.2     
   8 N8             6.6726     3.6060    -0.0404 N.am    
   9 N9            -0.4005    -1.7425     0.0137 N.2     
  10 N10           -0.0178    -2.9494     0.2417 N.2     
  11 C11            0.4567    -0.7406    -0.0477 C.2     
  12 C12            2.2091    -2.2003     0.3681 C.2     
  13 C13            1.9755     1.3621    -0.2071 C.2     
  14 C14            1.2569    -3.2245     0.4230 C.2     
  15 C15            4.4713     2.4798    -0.1071 C.3     
  16 C16            7.4656     4.7591    -0.0183 C.ar    
  17 C17            5.3385     3.7086    -0.2019 C.2     
  18 C18            1.6909    -4.6428     0.6898 C.3     
  19 C19            6.9639     5.9381     0.5169 C.ar    
  20 C20            8.7575     4.7247    -0.5265 C.ar    
  21 C21            7.7485     7.0745     0.5374 C.ar    
  22 C22            9.5378     5.8640    -0.5034 C.ar    
  23 C23            9.0332     7.0390     0.0249 C.ar    
  24 H24            4.5833     2.0314     0.8801 H       
  25 H25            4.7743     1.7615    -0.8689 H       
  26 H26            7.0832     2.7330     0.0605 H       
  27 H27            0.8175    -5.2950     0.6958 H       
  28 H28            2.3796    -4.9651    -0.0911 H       
  29 H29            2.1893    -4.6943     1.6578 H       
  30 H30            5.9609     5.9666     0.9165 H       
  31 H31            9.1518     3.8077    -0.9389 H       
  32 H32            7.3588     7.9917     0.9536 H       
  33 H33           10.5427     5.8377    -0.8982 H       
@<TRIPOS>BOND
   1    1   23 1
   2    2   11 1
   3    2   13 1
   4    3   13 1
   5    3   15 1
   6    4   12 2
   7    5   17 2
   8    6    7 1
   9    6   11 1
  10    6   12 am
  11    7   13 2
  12    8   16 1
  13    8   17 am
  14    8   26 1
  15    9   10 1
  16    9   11 2
  17   10   14 2
  18   12   14 1
  19   14   18 1
  20   15   17 1
  21   15   24 1
  22   15   25 1
  23   16   19 ar
  24   16   20 ar
  25   18   27 1
  26   18   28 1
  27   18   29 1
  28   19   21 ar
  29   19   30 1
  30   20   22 ar
  31   20   31 1
  32   21   23 ar
  33   21   32 1
  34   22   23 ar
  35   22   33 1

#	End of record

#	Name: 16009016
#	Creating user name:	landrgr1
#	Creation time:	28. 01. 2015 13:52

#	Modifying user name:	landrgr1
#	Modification time:	28. 01. 2015 13:52

#	Program:	corina 3.48 0006  22.01.2010

@<TRIPOS>MOLECULE
16009016
  65   67    0    0    0
SMALL
NO_CHARGES


@<TRIPOS>ATOM
   1 S1            -0.0172     1.4168     0.0098 S.o2    
   2 O2             0.0021    -0.0041     0.0020 O.2     
   3 O3             1.1617     2.2101     0.0028 O.2     
   4 O4            -3.2182     2.5163    -2.3613 O.2     
   5 O5            -3.7571    -0.6012     3.3093 O.2     
   6 O6            -6.1488     7.9425    -4.2143 O.3     
   7 O7            -4.5862     2.5222     6.3440 O.2     
   8 N8            -0.9002     1.8797    -1.3124 N.am    
   9 N9            -3.0817     3.0279     4.8175 N.am    
  10 N10           -2.9456     4.7138    -2.4970 N.am    
  11 N11           -4.1994     0.9511     4.8529 N.am    
  12 C12           -1.1366     3.3017    -1.5741 C.3     
  13 C13           -0.0815     3.8226    -2.5520 C.3     
  14 C14           -0.9297     1.8941     1.4396 C.ar    
  15 C15           -2.5578     1.4031     3.1254 C.ar    
  16 C16           -2.5081     3.4811    -2.1722 C.2     
  17 C17           -2.3527     2.6732     3.6917 C.ar    
  18 C18           -1.8398     1.0196     1.9952 C.ar    
  19 C19            1.2783     3.7568    -1.9059 C.ar    
  20 C20           -0.7278     3.1465     1.9992 C.ar    
  21 C21           -1.4331     3.5388     3.1194 C.ar    
  22 C22           -3.5423     0.5078     3.7592 C.2     
  23 C23           -4.2789     4.8883    -3.0785 C.3     
  24 C24           -3.9678     2.1732     5.3571 C.2     
  25 C25           -4.5258     6.3733    -3.3518 C.3     
  26 C26            2.0519     2.6188    -2.0378 C.ar    
  27 C27            1.7544     4.8366    -1.1859 C.ar    
  28 C28           -2.8795     4.3443     5.4277 C.3     
  29 C29           -5.9182     6.5555    -3.9591 C.3     
  30 C30           -5.1831     0.0808     5.5018 C.3     
  31 C31            3.2993     2.5585    -1.4451 C.ar    
  32 C32            3.0018     4.7763    -0.5932 C.ar    
  33 C33            3.7732     3.6363    -0.7207 C.ar    
  34 C34           -7.4283     8.2235    -4.7853 C.3     
  35 C35           -7.5647     9.7301    -5.0145 C.3     
  36 H36           -1.0722     3.8587    -0.6394 H       
  37 H37           -0.0860     3.2083    -3.4525 H       
  38 H38           -0.3090     4.8555    -2.8156 H       
  39 H39           -1.2609     1.2094    -1.9136 H       
  40 H40           -1.9948     0.0447     1.5570 H       
  41 H41           -0.0116     3.8217     1.5548 H       
  42 H42           -1.2697     4.5166     3.5479 H       
  43 H43           -2.3777     5.4855    -2.3458 H       
  44 H44           -4.3434     4.3312    -4.0132 H       
  45 H45           -5.0306     4.5172    -2.3818 H       
  46 H46           -4.4613     6.9304    -2.4171 H       
  47 H47           -3.7741     6.7444    -4.0485 H       
  48 H48            1.6817     1.7768    -2.6037 H       
  49 H49            1.1520     5.7275    -1.0869 H       
  50 H50           -3.5659     5.0622     4.9788 H       
  51 H51           -3.0694     4.2811     6.4992 H       
  52 H52           -1.8527     4.6690     5.2592 H       
  53 H53           -6.6699     6.1844    -3.2624 H       
  54 H54           -5.9827     5.9984    -4.8938 H       
  55 H55           -4.6885    -0.5221     6.2634 H       
  56 H56           -5.9569     0.6910     5.9675 H       
  57 H57           -5.6359    -0.5742     4.7574 H       
  58 H58            3.9034     1.6691    -1.5476 H       
  59 H59            3.3739     5.6200    -0.0311 H       
  60 H60            4.7476     3.5890    -0.2574 H       
  61 H61           -7.5241     7.7011    -5.7371 H       
  62 H62           -8.2113     7.8870    -4.1057 H       
  63 H63           -8.5406     9.9445    -5.4500 H       
  64 H64           -7.4689    10.2526    -4.0627 H       
  65 H65           -6.7817    10.0666    -5.6941 H       
@<TRIPOS>BOND
   1    1    2 2
   2    1    3 2
   3    1    8 am
   4    1   14 1
   5    4   16 2
   6    5   22 2
   7    6   29 1
   8    6   34 1
   9    7   24 2
  10    8   12 1
  11    8   39 1
  12    9   17 1
  13    9   24 am
  14    9   28 1
  15   10   16 am
  16   10   23 1
  17   10   43 1
  18   11   22 am
  19   11   24 am
  20   11   30 1
  21   12   13 1
  22   12   16 1
  23   12   36 1
  24   13   19 1
  25   13   37 1
  26   13   38 1
  27   14   18 ar
  28   14   20 ar
  29   15   17 ar
  30   15   18 ar
  31   15   22 1
  32   17   21 ar
  33   18   40 1
  34   19   26 ar
  35   19   27 ar
  36   20   21 ar
  37   20   41 1
  38   21   42 1
  39   23   25 1
  40   23   44 1
  41   23   45 1
  42   25   29 1
  43   25   46 1
  44   25   47 1
  45   26   31 ar
  46   26   48 1
  47   27   32 ar
  48   27   49 1
  49   28   50 1
  50   28   51 1
  51   28   52 1
  52   29   53 1
  53   29   54 1
  54   30   55 1
  55   30   56 1
  56   30   57 1
  57   31   33 ar
  58   31   58 1
  59   32   33 ar
  60   32   59 1
  61   33   60 1
  62   34   35 1
  63   34   61 1
  64   34   62 1
  65   35   63 1
  66   35   64 1
  67   35   65 1

#	End of record

#	Name: 16008326
#	Creating user name:	landrgr1
#	Creation time:	28. 01. 2015 13:52

#	Modifying user name:	landrgr1
#	Modification time:	28. 01. 2015 13:52

#	Program:	corina 3.48 0006  22.01.2010

@<TRIPOS>MOLECULE
16008326
  63   65    0    0    0
SMALL
NO_CHARGES


@<TRIPOS>ATOM
   1 O1            -0.0176     1.4485     0.0100 O.3     
   2 O2             1.6030     3.0415     0.0031 O.2     
   3 O3             3.1849    -1.9789    -0.0386 O.2     
   4 O4             2.0499    -9.1881     2.3139 O.3     
   5 O5             2.5192   -10.4591    -0.0844 O.3     
   6 N6             1.1367    -2.8367    -0.0231 N.am    
   7 C7             0.0021    -0.0041     0.0020 C.3     
   8 C8            -0.6792    -0.5449     1.2582 C.3     
   9 C9            -0.7032    -0.5314    -1.2467 C.3     
  10 C10           -2.8502    -0.6465     0.0258 C.3     
  11 C11           -2.1455    -0.1066     1.2718 C.3     
  12 C12           -2.1694    -0.0931    -1.2275 C.3     
  13 C13            1.4550    -0.4105    -0.0140 C.2     
  14 C14           -2.7702    -2.1744     0.0168 C.3     
  15 C15            2.1738     0.7246    -0.0148 C.2     
  16 C16            1.2583     1.8769     0.0001 C.2     
  17 C17            1.9846    -1.7891    -0.0261 C.2     
  18 C18            3.6786     0.8051    -0.0287 C.3     
  19 C19            1.6619    -4.2042    -0.0351 C.3     
  20 C20            0.4983    -5.1976    -0.0288 C.3     
  21 C21            1.0386    -6.6044    -0.0411 C.ar    
  22 C22            1.2975    -7.2542     1.1513 C.ar    
  23 C23            1.2691    -7.2442    -1.2448 C.ar    
  24 C24            1.7943    -8.5476     1.1418 C.ar    
  25 C25            1.7647    -8.5346    -1.2614 C.ar    
  26 C26            2.0316    -9.1896    -0.0698 C.ar    
  27 C27            1.7829    -8.4675     3.5186 C.3     
  28 C28            2.7383   -11.0552    -1.3645 C.3     
  29 C29            2.1292    -9.3434     4.7243 C.3     
  30 C30            3.2843   -12.4726    -1.1802 C.3     
  31 H31           -0.6254    -1.6336     1.2607 H       
  32 H32           -0.1749    -0.1541     2.1420 H       
  33 H33           -0.2158    -0.1311    -2.1357 H       
  34 H34           -0.6495    -1.6200    -1.2619 H       
  35 H35           -3.8956    -0.3380     0.0374 H       
  36 H36           -2.6337    -0.4986     2.1640 H       
  37 H37           -2.1993     0.9821     1.2766 H       
  38 H38           -2.2231     0.9955    -1.2196 H       
  39 H39           -2.6746    -0.4755    -2.1144 H       
  40 H40           -3.2563    -2.5690     0.9090 H       
  41 H41           -3.2722    -2.5593    -0.8708 H       
  42 H42           -1.7250    -2.4834     0.0058 H       
  43 H43            4.0316     0.8301    -1.0597 H       
  44 H44            3.9988     1.7105     0.4869 H       
  45 H45            4.0938    -0.0669     0.4765 H       
  46 H46            0.1786    -2.6852    -0.0131 H       
  47 H47            2.2633    -4.3547    -0.9317 H       
  48 H48            2.2804    -4.3636     0.8482 H       
  49 H49           -0.1030    -5.0472     0.8678 H       
  50 H50           -0.1202    -5.0383    -0.9121 H       
  51 H51            1.1128    -6.7535     2.0903 H       
  52 H52            1.0611    -6.7349    -2.1742 H       
  53 H53            1.9434    -9.0324    -2.2030 H       
  54 H54            2.3884    -7.5615     3.5419 H       
  55 H55            0.7269    -8.1998     3.5554 H       
  56 H56            1.7967   -11.0969    -1.9119 H       
  57 H57            3.4582   -10.4586    -1.9247 H       
  58 H58            1.9255    -8.7937     5.6432 H       
  59 H59            1.5236   -10.2495     4.7011 H       
  60 H60            3.1852    -9.6111     4.6876 H       
  61 H61            4.2259   -12.4310    -0.6328 H       
  62 H62            2.5644   -13.0693    -0.6200 H       
  63 H63            3.4514   -12.9273    -2.1566 H       
@<TRIPOS>BOND
   1    1    7 1
   2    1   16 1
   3    2   16 2
   4    3   17 2
   5    4   24 1
   6    4   27 1
   7    5   26 1
   8    5   28 1
   9    6   17 am
  10    6   19 1
  11    6   46 1
  12    7    8 1
  13    7    9 1
  14    7   13 1
  15    8   11 1
  16    8   31 1
  17    8   32 1
  18    9   12 1
  19    9   33 1
  20    9   34 1
  21   10   11 1
  22   10   12 1
  23   10   14 1
  24   10   35 1
  25   11   36 1
  26   11   37 1
  27   12   38 1
  28   12   39 1
  29   13   15 2
  30   13   17 1
  31   14   40 1
  32   14   41 1
  33   14   42 1
  34   15   16 1
  35   15   18 1
  36   18   43 1
  37   18   44 1
  38   18   45 1
  39   19   20 1
  40   19   47 1
  41   19   48 1
  42   20   21 1
  43   20   49 1
  44   20   50 1
  45   21   22 ar
  46   21   23 ar
  47   22   24 ar
  48   22   51 1
  49   23   25 ar
  50   23   52 1
  51   24   26 ar
  52   25   26 ar
  53   25   53 1
  54   27   29 1
  55   27   54 1
  56   27   55 1
  57   28   30 1
  58   28   56 1
  59   28   57 1
  60   29   58 1
  61   29   59 1
  62   29   60 1
  63   30   61 1
  64   30   62 1
  65   30   63 1

#	End of record

#	Name: 16001095
#	Creating user name:	landrgr1
#	Creation time:	28. 01. 2015 13:52

#	Modifying user name:	landrgr1
#	Modification time:	28. 01. 2015 13:52

#	Program:	corina 3.48 0006  22.01.2010

@<TRIPOS>MOLECULE
16001095
  32   34    0    0    0
SMALL
NO_CHARGES


@<TRIPOS>ATOM
   1 O1             0.1005     1.3456     0.4124 O.3     
   2 O2             2.3446    -0.0256    -0.4984 O.3     
   3 O3            -1.4851    -5.1189     0.2260 O.3     
   4 O4            -6.1205    -1.8402     2.2042 O.2     
   5 O5            -6.4647    -3.9183     2.0884 O.2     
   6 N6            -2.2785    -2.7904     0.7646 N.pl3   
   7 N7            -2.4479    -4.1788     0.6666 N.pl3   
   8 N8            -3.4669    -2.2281     1.2403 N.2     
   9 N9            -4.3082    -5.6276     1.1479 N.2     
  10 N10           -5.7254    -2.9617     1.9404 N.pl3   
  11 C11           -1.1141    -2.0867     0.4457 C.ar    
  12 C12            0.0794    -0.0081     0.2712 C.ar    
  13 C13            1.1993    -0.6932    -0.1861 C.ar    
  14 C14           -1.0757    -0.7059     0.5877 C.ar    
  15 C15            1.3885     1.9700     0.4413 C.3     
  16 C16            0.0063    -2.7680    -0.0137 C.ar    
  17 C17            2.2308     1.3871    -0.7015 C.3     
  18 C18            1.1574    -2.0727    -0.3276 C.ar    
  19 C19           -3.7397    -4.4521     1.0838 C.2     
  20 C20           -4.3466    -3.1622     1.4400 C.2     
  21 C21           -3.5283    -6.8348     0.8639 C.3     
  22 H22           -1.9462    -0.1754     0.9444 H       
  23 H23            1.2786     3.0459     0.3052 H       
  24 H24            1.8738     1.7674     1.3961 H       
  25 H25           -0.0231    -3.8418    -0.1254 H       
  26 H26            3.2220     1.8404    -0.6956 H       
  27 H27            1.7419     1.5831    -1.6557 H       
  28 H28            2.0272    -2.6042    -0.6845 H       
  29 H29           -1.5541    -5.3422    -0.7123 H       
  30 H30           -3.1396    -6.7854    -0.1532 H       
  31 H31           -2.6984    -6.9050     1.5671 H       
  32 H32           -4.1667    -7.7123     0.9666 H       
@<TRIPOS>BOND
   1    1   12 1
   2    1   15 1
   3    2   13 1
   4    2   17 1
   5    3    7 1
   6    3   29 1
   7    4   10 2
   8    5   10 2
   9    6    7 1
  10    6    8 1
  11    6   11 1
  12    7   19 1
  13    8   20 2
  14    9   19 2
  15    9   21 1
  16   10   20 1
  17   11   14 ar
  18   11   16 ar
  19   12   13 ar
  20   12   14 ar
  21   13   18 ar
  22   14   22 1
  23   15   17 1
  24   15   23 1
  25   15   24 1
  26   16   18 ar
  27   16   25 1
  28   17   26 1
  29   17   27 1
  30   18   28 1
  31   19   20 1
  32   21   30 1
  33   21   31 1
  34   21   32 1

#	End of record

#	Name: 15999682
#	Creating user name:	landrgr1
#	Creation time:	28. 01. 2015 13:52

#	Modifying user name:	landrgr1
#	Modification time:	28. 01. 2015 13:52

#	Program:	corina 3.48 0006  22.01.2010

@<TRIPOS>MOLECULE
15999682
  37   39    0    0    0
SMALL
NO_CHARGES


@<TRIPOS>ATOM
   1 O1            -0.0455     1.3834     0.0663 O.3     
   2 O2             3.9424    -1.9459    -2.6752 O.3     
   3 O3            -6.4173     0.6439     0.2309 O.3     
   4 O4             1.8824    -3.7066    -1.6712 O.2     
   5 O5             1.8068    -4.0632     0.4067 O.2     
   6 N6            -1.1207    -0.8819    -0.1652 N.pl3   
   7 N7            -0.0150    -0.0222    -0.1025 N.pl3   
   8 N8            -0.6597    -2.1904    -0.3385 N.2     
   9 N9             2.3562    -0.4110    -0.2346 N.2     
  10 N10            1.4929    -3.3929    -0.5606 N.pl3   
  11 C11           -2.4602    -0.4961    -0.0650 C.ar    
  12 C12            1.1127    -0.8143    -0.2383 C.2     
  13 C13            0.6380    -2.1969    -0.3864 C.2     
  14 C14           -3.4666    -1.4509    -0.1433 C.ar    
  15 C15           -2.7864     0.8421     0.1187 C.ar    
  16 C16            3.4444    -1.3918    -0.2489 C.3     
  17 C17           -4.7894    -1.0687    -0.0438 C.ar    
  18 C18           -4.1099     1.2221     0.2180 C.ar    
  19 C19            4.2087    -1.2753    -1.5424 C.2     
  20 C20           -5.1142     0.2685     0.1339 C.ar    
  21 C21            5.2736    -0.4823    -1.7583 C.2     
  22 C22            5.6719    -0.6874    -3.0993 C.2     
  23 C23            4.8266    -1.5934    -3.6227 C.2     
  24 C24           -6.6793     2.0369     0.4131 C.3     
  25 H25           -3.2140    -2.4918    -0.2823 H       
  26 H26           -2.0048     1.5845     0.1841 H       
  27 H27            4.1160    -1.2016     0.5883 H       
  28 H28            3.0296    -2.3959    -0.1611 H       
  29 H29           -5.5718    -1.8107    -0.1046 H       
  30 H30           -4.3636     2.2621     0.3607 H       
  31 H31            5.7353     0.1837    -1.0444 H       
  32 H32            0.8287     1.7965     0.0840 H       
  33 H33            6.4964    -0.2082    -3.6062 H       
  34 H34            4.8542    -1.9730    -4.6334 H       
  35 H35           -6.2068     2.3780     1.3342 H       
  36 H36           -6.2755     2.5959    -0.4310 H       
  37 H37           -7.7554     2.1991     0.4750 H       
@<TRIPOS>BOND
   1    1    7 1
   2    1   32 1
   3    2   19 1
   4    2   23 1
   5    3   20 1
   6    3   24 1
   7    4   10 2
   8    5   10 2
   9    6    7 1
  10    6    8 1
  11    6   11 1
  12    7   12 1
  13    8   13 2
  14    9   12 2
  15    9   16 1
  16   10   13 1
  17   11   14 ar
  18   11   15 ar
  19   12   13 1
  20   14   17 ar
  21   14   25 1
  22   15   18 ar
  23   15   26 1
  24   16   19 1
  25   16   27 1
  26   16   28 1
  27   17   20 ar
  28   17   29 1
  29   18   20 ar
  30   18   30 1
  31   19   21 2
  32   21   22 1
  33   21   31 1
  34   22   23 2
  35   22   33 1
  36   23   34 1
  37   24   35 1
  38   24   36 1
  39   24   37 1

#	End of record

#	Name: 15997982
#	Creating user name:	landrgr1
#	Creation time:	28. 01. 2015 13:52

#	Modifying user name:	landrgr1
#	Modification time:	28. 01. 2015 13:52

#	Program:	corina 3.48 0006  22.01.2010

@<TRIPOS>MOLECULE
15997982
  41   43    0    0    0
SMALL
NO_CHARGES


@<TRIPOS>ATOM
   1 Cl1           -5.4954     1.3791    -0.7794 Cl      
   2 O2            -0.5506     2.4088    -0.8467 O.3     
   3 O3           -12.0257    -5.3541    -1.7851 O.3     
   4 O4            -7.7932    -2.6424    -1.5337 O.2     
   5 O5            -1.2477    -0.6899     0.8085 O.2     
   6 N6            -6.5270    -3.5663     0.0398 N.am    
   7 N7            -2.6934     0.4465    -0.4392 N.am    
   8 C8            -5.5639    -2.5574    -0.0806 C.ar    
   9 C9            -3.6574    -0.5621    -0.3188 C.ar    
  10 C10           -5.9562    -1.2505    -0.3386 C.ar    
  11 C11           -4.2165    -2.8628     0.0636 C.ar    
  12 C12           -8.7223    -4.5137    -0.4870 C.ar    
  13 C13           -5.0057    -0.2550    -0.4574 C.ar    
  14 C14           -3.2665    -1.8684    -0.0551 C.ar    
  15 C15           -7.6544    -3.5132    -0.6967 C.2     
  16 C16           -9.8902    -4.4610    -1.2480 C.ar    
  17 C17           -8.5630    -5.5182     0.4695 C.ar    
  18 C18          -10.8860    -5.4021    -1.0461 C.ar    
  19 C19           -1.4769     0.2861     0.1183 C.2     
  20 C20           -9.5614    -6.4506     0.6623 C.ar    
  21 C21          -10.7209    -6.3940    -0.0892 C.ar    
  22 C22           -0.4295     1.2873    -0.1066 C.2     
  23 C23            0.8395     1.2480     0.3963 C.2     
  24 C24            1.4940     2.3990    -0.0696 C.2     
  25 C25            0.6072     3.0818    -0.8268 C.2     
  26 C26          -13.0107    -6.3560    -1.5242 C.3     
  27 H27           -7.0040    -1.0124    -0.4467 H       
  28 H28           -3.9122    -3.8784     0.2689 H       
  29 H29           -2.2187    -2.1071     0.0527 H       
  30 H30           -6.3829    -4.3036     0.6535 H       
  31 H31           -2.9012     1.2607    -0.9238 H       
  32 H32          -10.0176    -3.6886    -1.9920 H       
  33 H33           -7.6586    -5.5656     1.0579 H       
  34 H34           -9.4369    -7.2274     1.4023 H       
  35 H35          -11.4991    -7.1266     0.0662 H       
  36 H36            1.2584     0.4801     1.0297 H       
  37 H37            2.5144     2.6852     0.1384 H       
  38 H38            0.8004     4.0161    -1.3329 H       
  39 H39          -12.5837    -7.3419    -1.7080 H       
  40 H40          -13.3323    -6.2874    -0.4850 H       
  41 H41          -13.8674    -6.2030    -2.1805 H       
@<TRIPOS>BOND
   1    1   13 1
   2    2   22 1
   3    2   25 1
   4    3   18 1
   5    3   26 1
   6    4   15 2
   7    5   19 2
   8    6    8 1
   9    6   15 am
  10    6   30 1
  11    7    9 1
  12    7   19 am
  13    7   31 1
  14    8   10 ar
  15    8   11 ar
  16    9   13 ar
  17    9   14 ar
  18   10   13 ar
  19   10   27 1
  20   11   14 ar
  21   11   28 1
  22   12   15 1
  23   12   16 ar
  24   12   17 ar
  25   14   29 1
  26   16   18 ar
  27   16   32 1
  28   17   20 ar
  29   17   33 1
  30   18   21 ar
  31   19   22 1
  32   20   21 ar
  33   20   34 1
  34   21   35 1
  35   22   23 2
  36   23   24 1
  37   23   36 1
  38   24   25 2
  39   24   37 1
  40   25   38 1
  41   26   39 1
  42   26   40 1
  43   26   41 1

#	End of record

#	Name: 15995523
#	Creating user name:	landrgr1
#	Creation time:	28. 01. 2015 13:52

#	Modifying user name:	landrgr1
#	Modification time:	28. 01. 2015 13:52

#	Program:	corina 3.48 0006  22.01.2010

@<TRIPOS>MOLECULE
15995523
  43   45    0    0    0
SMALL
NO_CHARGES


@<TRIPOS>ATOM
   1 Cl1            2.4092     1.5606     2.5350 Cl      
   2 O2             0.0002     1.3992     0.1194 O.3     
   3 O3             0.9083    -0.6721     2.3011 O.3     
   4 O4            -2.3472    -0.3296    -0.1291 O.3     
   5 O5             3.4004     3.4692    -0.6335 O.2     
   6 O6             1.9479     6.9076     1.7702 O.2     
   7 O7            -3.6398    -1.4251     1.3046 O.2     
   8 N8             1.5098     3.2128     0.4894 N.am    
   9 N9             2.7224     5.2152     0.5478 N.am    
  10 C10            1.2957    -0.4007     0.9527 C.3     
  11 C11            0.0607    -0.0436     0.0961 C.3     
  12 C12            2.1771     0.8666     0.8872 C.3     
  13 C13            1.3704     1.8394    -0.0011 C.3     
  14 C14           -1.2060    -0.6399     0.7134 C.3     
  15 C15            0.5641     3.7309     1.3318 C.2     
  16 C16            2.5693     3.9510     0.1118 C.2     
  17 C17            0.6929     4.9965     1.7842 C.2     
  18 C18            1.8098     5.7641     1.3748 C.2     
  19 C19           -0.3387     5.5843     2.7123 C.3     
  20 C20           -3.5483    -0.7857     0.2759 C.2     
  21 C21           -4.7541    -0.5083    -0.5312 C.ar    
  22 C22           -6.0006    -0.9796    -0.1143 C.ar    
  23 C23           -4.6534     0.2312    -1.7112 C.ar    
  24 C24           -7.1226    -0.7170    -0.8728 C.ar    
  25 C25           -5.7834     0.4865    -2.4601 C.ar    
  26 C26           -7.0146     0.0112    -2.0444 C.ar    
  27 H27            1.8208    -1.2561     0.5277 H       
  28 H28            0.1908    -0.4016    -0.9251 H       
  29 H29            3.1403     0.6387     0.4307 H       
  30 H30            1.7008     1.7722    -1.0377 H       
  31 H31           -1.3609    -0.2159     1.7055 H       
  32 H32           -1.0968    -1.7214     0.7934 H       
  33 H33            1.6454    -0.9020     2.8834 H       
  34 H34           -0.2815     3.1304     1.6331 H       
  35 H35            3.4923     5.7335     0.2657 H       
  36 H36           -0.0552     5.3826     3.7452 H       
  37 H37           -0.3971     6.6614     2.5552 H       
  38 H38           -1.3101     5.1342     2.5076 H       
  39 H39           -6.0862    -1.5487     0.7996 H       
  40 H40           -3.6930     0.6027    -2.0368 H       
  41 H41           -8.0873    -1.0809    -0.5515 H       
  42 H42           -5.7069     1.0583    -3.3730 H       
  43 H43           -7.8961     0.2137    -2.6346 H       
@<TRIPOS>BOND
   1    1   12 1
   2    2   11 1
   3    2   13 1
   4    3   10 1
   5    3   33 1
   6    4   14 1
   7    4   20 1
   8    5   16 2
   9    6   18 2
  10    7   20 2
  11    8   13 1
  12    8   15 1
  13    8   16 am
  14    9   16 am
  15    9   18 am
  16    9   35 1
  17   10   11 1
  18   10   12 1
  19   10   27 1
  20   11   14 1
  21   11   28 1
  22   12   13 1
  23   12   29 1
  24   13   30 1
  25   14   31 1
  26   14   32 1
  27   15   17 2
  28   15   34 1
  29   17   18 1
  30   17   19 1
  31   19   36 1
  32   19   37 1
  33   19   38 1
  34   20   21 1
  35   21   22 ar
  36   21   23 ar
  37   22   24 ar
  38   22   39 1
  39   23   25 ar
  40   23   40 1
  41   24   26 ar
  42   24   41 1
  43   25   26 ar
  44   25   42 1
  45   26   43 1

#	End of record

#	Name: 15993886
#	Creating user name:	landrgr1
#	Creation time:	28. 01. 2015 13:52

#	Modifying user name:	landrgr1
#	Modification time:	28. 01. 2015 13:52

#	Program:	corina 3.48 0006  22.01.2010

@<TRIPOS>MOLECULE
15993886
  45   48    0    0    0
SMALL
NO_CHARGES


@<TRIPOS>ATOM
   1 S1             0.1228     1.5885    -1.0370 S.3     
   2 O2             0.6245    -3.7377     0.9043 O.2     
   3 O3            -2.0797    -0.7360    -0.9163 O.2     
   4 O4             1.8825    -1.3638     3.0525 O.2     
   5 N5             1.4772    -1.7446     0.4894 N.am    
   6 N6            -0.7551    -2.2706    -0.0021 N.am    
   7 N7             3.9426    -2.1737     3.2018 N.am    
   8 C8             1.3120    -0.4410     0.0021 C.2     
   9 C9             2.7772    -2.1626     1.0200 C.3     
  10 C10            0.0701    -0.0819    -0.4912 C.2     
  11 C11            0.4536    -2.6128     0.4751 C.2     
  12 C12           -0.9801    -1.0344    -0.4856 C.2     
  13 C13            2.2263     0.6029    -0.0745 C.2     
  14 C14           -1.7934    -3.2116     0.0032 C.ar    
  15 C15            2.8341    -1.8709     2.4974 C.2     
  16 C16            1.7621     1.7366    -0.5950 C.2     
  17 C17            3.9979    -1.8901     4.6381 C.3     
  18 C18           -2.6390    -3.3082     1.1001 C.ar    
  19 C19           -1.9822    -4.0453    -1.0909 C.ar    
  20 C20            5.3352    -2.3202     5.1838 C.ar    
  21 C21           -3.6615    -4.2368     1.1024 C.ar    
  22 C22           -3.0064    -4.9718    -1.0827 C.ar    
  23 C23           -3.8432    -5.0699     0.0138 C.ar    
  24 C24            6.3927    -1.4301     5.2024 C.ar    
  25 C25            5.5027    -3.6029     5.6711 C.ar    
  26 C26            7.6194    -1.8246     5.7030 C.ar    
  27 C27            6.7293    -3.9974     6.1718 C.ar    
  28 C28            7.7883    -3.1090     6.1854 C.ar    
  29 H29            2.9100    -3.2319     0.8554 H       
  30 H30            3.5705    -1.6154     0.5108 H       
  31 H31            3.2463     0.5008     0.2654 H       
  32 H32            2.3488     2.6346    -0.7212 H       
  33 H33            4.7037    -2.5793     2.7579 H       
  34 H34            3.8651    -0.8208     4.8027 H       
  35 H35            3.2046    -2.4374     5.1473 H       
  36 H36           -2.4972    -2.6583     1.9509 H       
  37 H37           -1.3290    -3.9692    -1.9476 H       
  38 H38           -4.3196    -4.3124     1.9554 H       
  39 H39           -3.1540    -5.6204    -1.9336 H       
  40 H40           -4.6432    -5.7954     0.0180 H       
  41 H41            6.2607    -0.4267     4.8254 H       
  42 H42            4.6751    -4.2967     5.6610 H       
  43 H43            8.4458    -1.1295     5.7168 H       
  44 H44            6.8601    -4.9994     6.5528 H       
  45 H45            8.7468    -3.4173     6.5762 H       
@<TRIPOS>BOND
   1    1   10 1
   2    1   16 1
   3    2   11 2
   4    3   12 2
   5    4   15 2
   6    5    8 1
   7    5    9 1
   8    5   11 am
   9    6   11 am
  10    6   12 am
  11    6   14 1
  12    7   15 am
  13    7   17 1
  14    7   33 1
  15    8   10 2
  16    8   13 1
  17    9   15 1
  18    9   29 1
  19    9   30 1
  20   10   12 1
  21   13   16 2
  22   13   31 1
  23   14   18 ar
  24   14   19 ar
  25   16   32 1
  26   17   20 1
  27   17   34 1
  28   17   35 1
  29   18   21 ar
  30   18   36 1
  31   19   22 ar
  32   19   37 1
  33   20   24 ar
  34   20   25 ar
  35   21   23 ar
  36   21   38 1
  37   22   23 ar
  38   22   39 1
  39   23   40 1
  40   24   26 ar
  41   24   41 1
  42   25   27 ar
  43   25   42 1
  44   26   28 ar
  45   26   43 1
  46   27   28 ar
  47   27   44 1
  48   28   45 1

#	End of record

#	Name: 15993249
#	Creating user name:	landrgr1
#	Creation time:	28. 01. 2015 13:52

#	Modifying user name:	landrgr1
#	Modification time:	28. 01. 2015 13:52

#	Program:	corina 3.48 0006  22.01.2010

@<TRIPOS>MOLECULE
15993249
  77   81    0    0    0
SMALL
NO_CHARGES


@<TRIPOS>ATOM
   1 O1             1.8995    -3.7339     1.8534 O.2     
   2 O2             3.2327    -6.4913     0.0564 O.2     
   3 O3             0.5122     0.9392    -1.5611 O.3     
   4 O4             1.9968    -4.7589    -5.2318 O.3     
   5 O5             5.5345    -3.2283    -2.4340 O.3     
   6 O6             4.4802    -3.6099    -4.9464 O.3     
   7 N7             1.6000    -5.1355    -0.4698 N.am    
   8 N8             0.1622    -3.1668     3.1112 N.am    
   9 N9            -1.1617    -1.1476     4.5022 N.3     
  10 N10           -1.2233     1.1990     4.5195 N.ar    
  11 C11           -0.1520    -4.6943     1.1911 C.3     
  12 C12            0.2867    -4.5375    -0.2654 C.3     
  13 C13            0.0061    -6.1648     1.5959 C.3     
  14 C14            0.7111    -3.8310     2.0748 C.2     
  15 C15            1.4989    -6.5023     1.6198 C.3     
  16 C16            0.3471    -3.0722    -0.6124 C.ar    
  17 C17            2.1495    -6.0317     0.3507 C.2     
  18 C18            0.9579    -2.2204     3.9078 C.3     
  19 C19           -1.2498    -3.3647     3.4720 C.3     
  20 C20            0.1937    -0.8951     3.9952 C.3     
  21 C21           -1.9223    -1.9918     3.5775 C.3     
  22 C22            2.3284    -4.7490    -1.6023 C.ar    
  23 C23           -0.7642    -2.4417    -1.1407 C.ar    
  24 C24            1.5120    -2.3594    -0.3967 C.ar    
  25 C25            3.5835    -4.1742    -1.4569 C.ar    
  26 C26            1.7969    -4.9461    -2.8694 C.ar    
  27 C27           -1.8313     0.0452     4.7495 C.ar    
  28 C28           -0.7115    -1.0985    -1.4592 C.ar    
  29 C29            1.5699    -1.0160    -0.7135 C.ar    
  30 C30            0.4578    -0.3822    -1.2486 C.ar    
  31 C31            2.5172    -4.5648    -3.9905 C.ar    
  32 C32            4.3051    -3.7918    -2.5768 C.ar    
  33 C33            3.7717    -3.9844    -3.8457 C.ar    
  34 C34           -3.1342     0.0163     5.2358 C.ar    
  35 C35           -3.7889     1.2108     5.4770 C.ar    
  36 C36           -1.8232     2.3532     4.7404 C.ar    
  37 C37           -3.1161     2.3984     5.2228 C.ar    
  38 C38            1.7485     1.6132    -1.3176 C.3     
  39 C39            0.7029    -5.3609    -5.3059 C.3     
  40 C40            6.0204    -3.0605    -1.1007 C.3     
  41 C41            4.2792    -2.2786    -5.4253 C.3     
  42 H42           -1.1958    -4.3972     1.2927 H       
  43 H43           -0.4380    -5.0287    -0.9148 H       
  44 H44           -0.4213    -6.3208     2.5865 H       
  45 H45           -0.5025    -6.8015     0.8719 H       
  46 H46            1.9679    -6.0095     2.4714 H       
  47 H47            1.6249    -7.5810     1.7129 H       
  48 H48            1.1098    -2.6222     4.9095 H       
  49 H49            1.9217    -2.0562     3.4260 H       
  50 H50           -1.7449    -3.9567     2.7022 H       
  51 H51           -1.3142    -3.8787     4.4310 H       
  52 H52            0.1333    -0.4400     3.0066 H       
  53 H53            0.7166    -0.2220     4.6746 H       
  54 H54           -2.9384    -2.1173     3.9516 H       
  55 H55           -1.9515    -1.5206     2.5951 H       
  56 H56           -1.6742    -2.9998    -1.3048 H       
  57 H57            2.3773    -2.8531     0.0202 H       
  58 H58            3.9978    -4.0246    -0.4708 H       
  59 H59            0.8221    -5.3971    -2.9818 H       
  60 H60           -1.5797    -0.6065    -1.8722 H       
  61 H61            2.4799    -0.4595    -0.5445 H       
  62 H62           -3.6280    -0.9259     5.4222 H       
  63 H63           -4.8009     1.2194     5.8543 H       
  64 H64           -1.2960     3.2745     4.5416 H       
  65 H65           -3.5992     3.3478     5.4003 H       
  66 H66            1.6560     2.6591    -1.6101 H       
  67 H67            1.9924     1.5528    -0.2569 H       
  68 H68            2.5402     1.1417    -1.8999 H       
  69 H69            0.4067    -5.4580    -6.3504 H       
  70 H70            0.7344    -6.3477    -4.8440 H       
  71 H71           -0.0191    -4.7364    -4.7800 H       
  72 H72            7.0086    -2.6014    -1.1292 H       
  73 H73            5.3378    -2.4191    -0.5433 H       
  74 H74            6.0855    -4.0329    -0.6126 H       
  75 H75            3.2310    -2.1427    -5.6915 H       
  76 H76            4.5514    -1.5671    -4.6458 H       
  77 H77            4.9019    -2.1107    -6.3041 H       
@<TRIPOS>BOND
   1    1   14 2
   2    2   17 2
   3    3   30 1
   4    3   38 1
   5    4   31 1
   6    4   39 1
   7    5   32 1
   8    5   40 1
   9    6   33 1
  10    6   41 1
  11    7   12 1
  12    7   17 am
  13    7   22 1
  14    8   14 am
  15    8   18 1
  16    8   19 1
  17    9   20 1
  18    9   21 1
  19    9   27 1
  20   10   27 ar
  21   10   36 ar
  22   11   12 1
  23   11   13 1
  24   11   14 1
  25   11   42 1
  26   12   16 1
  27   12   43 1
  28   13   15 1
  29   13   44 1
  30   13   45 1
  31   15   17 1
  32   15   46 1
  33   15   47 1
  34   16   23 ar
  35   16   24 ar
  36   18   20 1
  37   18   48 1
  38   18   49 1
  39   19   21 1
  40   19   50 1
  41   19   51 1
  42   20   52 1
  43   20   53 1
  44   21   54 1
  45   21   55 1
  46   22   25 ar
  47   22   26 ar
  48   23   28 ar
  49   23   56 1
  50   24   29 ar
  51   24   57 1
  52   25   32 ar
  53   25   58 1
  54   26   31 ar
  55   26   59 1
  56   27   34 ar
  57   28   30 ar
  58   28   60 1
  59   29   30 ar
  60   29   61 1
  61   31   33 ar
  62   32   33 ar
  63   34   35 ar
  64   34   62 1
  65   35   37 ar
  66   35   63 1
  67   36   37 ar
  68   36   64 1
  69   37   65 1
  70   38   66 1
  71   38   67 1
  72   38   68 1
  73   39   69 1
  74   39   70 1
  75   39   71 1
  76   40   72 1
  77   40   73 1
  78   40   74 1
  79   41   75 1
  80   41   76 1
  81   41   77 1

#	End of record

#	Name: 15991747
#	Creating user name:	landrgr1
#	Creation time:	28. 01. 2015 13:52

#	Modifying user name:	landrgr1
#	Modification time:	28. 01. 2015 13:52

#	Program:	corina 3.48 0006  22.01.2010

@<TRIPOS>MOLECULE
15991747
  45   48    0    0    0
SMALL
NO_CHARGES


@<TRIPOS>ATOM
   1 O1             0.2846     1.1330    -0.1954 O.3     
   2 O2             2.4241    -0.3635    -1.1590 O.3     
   3 O3            -1.5280    -5.2705     0.0450 O.3     
   4 O4            -5.9285    -1.7355     2.1088 O.2     
   5 O5            -6.3461    -3.8033     2.1188 O.2     
   6 N6            -2.2083    -2.8899     0.5044 N.pl3   
   7 N7            -2.4309    -4.2742     0.4889 N.pl3   
   8 N8            -3.3480    -2.2621     1.0165 N.2     
   9 N9            -4.3114    -5.6358     1.1497 N.2     
  10 N10           -5.5861    -2.8818     1.8806 N.pl3   
  11 C11           -1.0416    -2.2464     0.0844 C.ar    
  12 C12            0.2095    -0.2244    -0.2648 C.ar    
  13 C13            1.2771    -0.9722    -0.7481 C.ar    
  14 C14           -0.9484    -0.8624     0.1519 C.ar    
  15 C15            0.0267    -2.9906    -0.4012 C.ar    
  16 C16           -3.7042    -4.4780     0.9917 C.2     
  17 C17            1.5925     1.7102    -0.2713 C.3     
  18 C18            2.3468     1.0405    -1.4280 C.3     
  19 C19            1.1804    -2.3546    -0.8151 C.ar    
  20 C20           -4.2453    -3.1553     1.3133 C.2     
  21 C21           -3.6301    -6.8000     0.9317 C.ar    
  22 C22           -3.4000    -8.8907    -0.2295 C.ar    
  23 C23           -1.7881    -8.2587     1.4338 C.ar    
  24 C24           -2.4703    -7.0814     1.6589 C.ar    
  25 C25           -4.0928    -7.7176    -0.0153 C.ar    
  26 C26           -2.2494    -9.1602     0.4906 C.ar    
  27 C27           -3.8975    -9.8818    -1.2500 C.3     
  28 C28           -0.5370    -8.5639     2.2165 C.3     
  29 H29           -1.7783    -0.2831     0.5288 H       
  30 H30           -0.0452    -4.0669    -0.4545 H       
  31 H31            1.5115     2.7813    -0.4566 H       
  32 H32            2.1254     1.5376     0.6638 H       
  33 H33            3.3515     1.4565    -1.5019 H       
  34 H34            1.8097     1.2068    -2.3618 H       
  35 H35            2.0096    -2.9349    -1.1922 H       
  36 H36           -2.1089    -6.3787     2.3951 H       
  37 H37           -4.9907    -7.5088    -0.5778 H       
  38 H38           -1.7112   -10.0807     0.3189 H       
  39 H39           -3.4556    -9.6567    -2.2206 H       
  40 H40           -3.6135   -10.8894    -0.9464 H       
  41 H41           -4.9832    -9.8162    -1.3210 H       
  42 H42           -0.8002    -9.1028     3.1267 H       
  43 H43            0.1298    -9.1777     1.6109 H       
  44 H44           -0.0357    -7.6321     2.4781 H       
  45 H45           -1.6478    -5.5259    -0.8800 H       
@<TRIPOS>BOND
   1    1   12 1
   2    1   17 1
   3    2   13 1
   4    2   18 1
   5    3    7 1
   6    3   45 1
   7    4   10 2
   8    5   10 2
   9    6    7 1
  10    6    8 1
  11    6   11 1
  12    7   16 1
  13    8   20 2
  14    9   16 2
  15    9   21 1
  16   10   20 1
  17   11   14 ar
  18   11   15 ar
  19   12   13 ar
  20   12   14 ar
  21   13   19 ar
  22   14   29 1
  23   15   19 ar
  24   15   30 1
  25   16   20 1
  26   17   18 1
  27   17   31 1
  28   17   32 1
  29   18   33 1
  30   18   34 1
  31   19   35 1
  32   21   24 ar
  33   21   25 ar
  34   22   25 ar
  35   22   26 ar
  36   22   27 1
  37   23   24 ar
  38   23   26 ar
  39   23   28 1
  40   24   36 1
  41   25   37 1
  42   26   38 1
  43   27   39 1
  44   27   40 1
  45   27   41 1
  46   28   42 1
  47   28   43 1
  48   28   44 1

#	End of record

#	Name: 15945808
#	Creating user name:	landrgr1
#	Creation time:	28. 01. 2015 13:52

#	Modifying user name:	landrgr1
#	Modification time:	28. 01. 2015 13:52

#	Program:	corina 3.48 0006  22.01.2010

@<TRIPOS>MOLECULE
15945808
  36   37    0    0    0
SMALL
NO_CHARGES


@<TRIPOS>ATOM
   1 F1             1.7467     8.8559     1.7496 F       
   2 O2            -4.9668     4.6872     0.3528 O.2     
   3 N3             0.1871     1.7739     1.2394 N.pl3   
   4 N4             2.7132     0.5987     1.2926 N.3     
   5 N5            -1.0833     3.6124     0.6269 N.2     
   6 N6            -2.2860     4.1743     0.1788 N.pl3   
   7 N7            -4.6557     5.3820    -0.5981 N.2     
   8 C8             0.2872     0.3279     1.4889 C.3     
   9 C9             1.3506     2.6167     1.5544 C.3     
  10 C10            1.5670    -0.1929     0.8262 C.3     
  11 C11            2.5885     2.0057     0.8892 C.3     
  12 C12           -0.9640     2.3236     0.7191 C.2     
  13 C13           -2.3901     5.5105     0.0246 C.2     
  14 C14           -1.3022     6.3901     0.4786 C.ar    
  15 C15           -1.5885     7.6779     0.9478 C.ar    
  16 C16            0.0238     5.9415     0.4489 C.ar    
  17 C17           -0.5650     8.4964     1.3714 C.ar    
  18 C18            1.0376     6.7704     0.8755 C.ar    
  19 C19           -3.5421     6.0639    -0.5720 C.2     
  20 C20            0.7474     8.0476     1.3334 C.ar    
  21 H21            0.3296     0.1436     2.5624 H       
  22 H22           -0.5784    -0.1782     1.0616 H       
  23 H23            1.1880     3.6237     1.1704 H       
  24 H24            1.4952     2.6524     2.6342 H       
  25 H25            1.4788    -0.1023    -0.2564 H       
  26 H26            1.7149    -1.2393     1.0932 H       
  27 H27            3.4773     2.5539     1.2018 H       
  28 H28            2.4861     2.0657    -0.1943 H       
  29 H29            2.8258     0.5178     2.2921 H       
  30 H30           -1.7670     1.6819     0.3878 H       
  31 H31           -3.0438     3.6025    -0.0206 H       
  32 H32           -2.6095     8.0287     0.9772 H       
  33 H33            0.2511     4.9476     0.0927 H       
  34 H34           -0.7845     9.4899     1.7335 H       
  35 H35            2.0608     6.4254     0.8534 H       
  36 H36           -3.5033     7.0515    -1.0073 H       
@<TRIPOS>BOND
   1    1   20 1
   2    2    7 2
   3    3    8 1
   4    3    9 1
   5    3   12 1
   6    4   10 1
   7    4   11 1
   8    4   29 1
   9    5    6 1
  10    5   12 2
  11    6   13 1
  12    6   31 1
  13    7   19 1
  14    8   10 1
  15    8   21 1
  16    8   22 1
  17    9   11 1
  18    9   23 1
  19    9   24 1
  20   10   25 1
  21   10   26 1
  22   11   27 1
  23   11   28 1
  24   12   30 1
  25   13   14 1
  26   13   19 2
  27   14   15 ar
  28   14   16 ar
  29   15   17 ar
  30   15   32 1
  31   16   18 ar
  32   16   33 1
  33   17   20 ar
  34   17   34 1
  35   18   20 ar
  36   18   35 1
  37   19   36 1

#	End of record

#	Name: 15945770
#	Creating user name:	landrgr1
#	Creation time:	28. 01. 2015 13:52

#	Modifying user name:	landrgr1
#	Modification time:	28. 01. 2015 13:52

#	Program:	corina 3.48 0006  22.01.2010

@<TRIPOS>MOLECULE
15945770
  32   33    0    0    0
SMALL
NO_CHARGES


@<TRIPOS>ATOM
   1 S1            -0.0211     1.7061     0.0114 S.3     
   2 O2             4.2314    -6.2684    -0.0736 O.2     
   3 O3             2.0375    -6.8927    -0.0555 O.2     
   4 N4             2.2383     0.5468    -0.0164 N.2     
   5 N5             2.9542    -5.9472    -0.0592 N.pl3   
   6 N6             2.4645     2.8872    -0.0064 N.pl3   
   7 N7             1.8764     4.0352     0.0055 N.2     
   8 C8             1.7912    -1.8588    -0.0250 C.ar    
   9 C9             1.3875    -0.4398    -0.0136 C.2     
  10 C10            3.1476    -2.2043    -0.0404 C.ar    
  11 C11            0.8198    -2.8667    -0.0149 C.ar    
  12 C12            2.5492    -4.5235    -0.0471 C.ar    
  13 C13            3.5165    -3.5320    -0.0510 C.ar    
  14 C14            1.2050    -4.1898    -0.0257 C.ar    
  15 C15            0.0021    -0.0041     0.0020 C.2     
  16 C16            1.7359     1.7600    -0.0051 C.2     
  17 C17            2.5949     5.1469     0.0042 C.2     
  18 C18            1.9542     6.3977     0.0171 C.2     
  19 C19            2.6872     7.5320     0.0157 C.2     
  20 C20            2.0002     8.8732     0.0296 C.3     
  21 H21            3.9029    -1.4324    -0.0441 H       
  22 H22           -0.2286    -2.6081     0.0018 H       
  23 H23            4.5626    -3.8002    -0.0629 H       
  24 H24            0.4568    -4.9686    -0.0175 H       
  25 H25           -0.8643    -0.6489     0.0071 H       
  26 H26            3.4332     2.8385    -0.0162 H       
  27 H27            3.6735     5.0928    -0.0068 H       
  28 H28            0.8756     6.4519     0.0280 H       
  29 H29            3.7658     7.4778     0.0048 H       
  30 H30            1.3861     8.9576     0.9261 H       
  31 H31            2.7492     9.6651     0.0263 H       
  32 H32            1.3685     8.9669    -0.8537 H       
@<TRIPOS>BOND
   1    1   15 1
   2    1   16 1
   3    2    5 2
   4    3    5 2
   5    4    9 1
   6    4   16 2
   7    5   12 1
   8    6    7 1
   9    6   16 1
  10    6   26 1
  11    7   17 2
  12    8    9 1
  13    8   10 ar
  14    8   11 ar
  15    9   15 2
  16   10   13 ar
  17   10   21 1
  18   11   14 ar
  19   11   22 1
  20   12   13 ar
  21   12   14 ar
  22   13   23 1
  23   14   24 1
  24   15   25 1
  25   17   18 1
  26   17   27 1
  27   18   19 2
  28   18   28 1
  29   19   20 1
  30   19   29 1
  31   20   30 1
  32   20   31 1
  33   20   32 1

#	End of record

#	Name: 15945744
#	Creating user name:	landrgr1
#	Creation time:	28. 01. 2015 13:52

#	Modifying user name:	landrgr1
#	Modification time:	28. 01. 2015 13:52

#	Program:	corina 3.48 0006  22.01.2010

@<TRIPOS>MOLECULE
15945744
  34   37    0    0    0
SMALL
NO_CHARGES


@<TRIPOS>ATOM
   1 S1            -0.0225     1.8057     0.0120 S.3     
   2 O2             2.2595     3.3623    -0.0015 O.3     
   3 N3            -3.3653    -1.2425     0.6905 N.pl3   
   4 N4            -2.1526    -0.7899    -1.0661 N.2     
   5 N5             2.6462     1.2216    -0.0166 N.2     
   6 C6            -3.3413    -1.2317    -0.6800 C.2     
   7 C7            -1.4117    -0.5257     0.0127 C.2     
   8 C8            -4.4805    -1.6574     1.3591 C.2     
   9 C9            -2.1439    -0.7956     1.1156 C.2     
  10 C10            0.0021    -0.0041     0.0020 C.3     
  11 C11           -4.4774    -1.6519    -1.4003 C.2     
  12 C12           -5.5759    -2.0630     0.6831 C.2     
  13 C13           -5.5823    -2.0626    -0.7216 C.2     
  14 C14           -4.4886    -1.6630     2.8661 C.3     
  15 C15            3.6051     3.2208    -0.0151 C.ar    
  16 C16            3.8584     1.8406    -0.0249 C.ar    
  17 C17            1.7084     2.1353    -0.0028 C.2     
  18 C18            4.6624     4.1152    -0.0204 C.ar    
  19 C19            5.1752     1.3797    -0.0399 C.ar    
  20 C20            5.9610     3.6458    -0.0353 C.ar    
  21 C21            6.2156     2.2835    -0.0450 C.ar    
  22 H22           -1.8249    -0.6799     2.1409 H       
  23 H23            0.5123    -0.3556    -0.8948 H       
  24 H24            0.5293    -0.3651     0.8851 H       
  25 H25           -4.4709    -1.6476    -2.4803 H       
  26 H26           -6.4517    -2.3888     1.2246 H       
  27 H27           -6.4602    -2.3875    -1.2601 H       
  28 H28           -4.8480    -0.7009     3.2311 H       
  29 H29           -5.1463    -2.4556     3.2229 H       
  30 H30           -3.4775    -1.8366     3.2342 H       
  31 H31            4.4716     5.1781    -0.0132 H       
  32 H32            5.3784     0.3190    -0.0472 H       
  33 H33            6.7839     4.3452    -0.0394 H       
  34 H34            7.2354     1.9281    -0.0567 H       
@<TRIPOS>BOND
   1    1   10 1
   2    1   17 1
   3    2   15 1
   4    2   17 1
   5    3    6 1
   6    3    8 1
   7    3    9 1
   8    4    6 2
   9    4    7 1
  10    5   16 1
  11    5   17 2
  12    6   11 1
  13    7    9 2
  14    7   10 1
  15    8   12 2
  16    8   14 1
  17    9   22 1
  18   10   23 1
  19   10   24 1
  20   11   13 2
  21   11   25 1
  22   12   13 1
  23   12   26 1
  24   13   27 1
  25   14   28 1
  26   14   29 1
  27   14   30 1
  28   15   16 ar
  29   15   18 ar
  30   16   19 ar
  31   18   20 ar
  32   18   31 1
  33   19   21 ar
  34   19   32 1
  35   20   21 ar
  36   20   33 1
  37   21   34 1

#	End of record

#	Name: 15945669
#	Creating user name:	landrgr1
#	Creation time:	28. 01. 2015 13:52

#	Modifying user name:	landrgr1
#	Modification time:	28. 01. 2015 13:52

#	Program:	corina 3.48 0006  22.01.2010

@<TRIPOS>MOLECULE
15945669
  23   22    0    0    0
SMALL
NO_CHARGES


@<TRIPOS>ATOM
   1 Br1            0.0000     0.0000     0.0000 Br      
   2 H2             0.0000     1.5100     0.0000 H       
   3 Cl3            9.3633     8.1438     5.0000 Cl      
   4 Cl4            5.0000     6.5100     7.7360 Cl      
   5 S5            10.6130    10.3991     7.7019 S.3     
   6 N6            12.7967    12.0277     7.6898 N.pl3   
   7 N7            13.1956     9.7411     7.6737 N.2     
   8 C8             9.2237     8.0677     7.7026 C.ar    
   9 C9            10.6375     8.5893     7.6919 C.3     
  10 C10            8.5635     7.8348     6.5095 C.ar    
  11 C11            8.5888     7.8167     8.9047 C.ar    
  12 C12            7.2655     7.3559     6.5195 C.ar    
  13 C13            7.2923     7.3384     8.9153 C.ar    
  14 C14            6.6288     7.1103     7.7225 C.ar    
  15 C15           12.3438    10.7287     7.6871 C.2     
  16 H16           11.1477     8.2378     6.7951 H       
  17 H17           11.1647     8.2283     8.5750 H       
  18 H18            9.1063     7.9942     9.8359 H       
  19 H19            6.7496     7.1742     5.5882 H       
  20 H20            6.7968     7.1425     9.8547 H       
  21 H21           12.1632    12.7622     7.6998 H       
  22 H22           13.7496    12.2091     7.6817 H       
  23 H23           14.1485     9.9225     7.6656 H       
@<TRIPOS>BOND
   1    1    2 1
   2    3   10 1
   3    4   14 1
   4    5    9 1
   5    5   15 1
   6    6   15 1
   7    6   21 1
   8    6   22 1
   9    7   15 2
  10    7   23 1
  11    8    9 1
  12    8   10 ar
  13    8   11 ar
  14    9   16 1
  15    9   17 1
  16   10   12 ar
  17   11   13 ar
  18   11   18 1
  19   12   14 ar
  20   12   19 1
  21   13   14 ar
  22   13   20 1

#	End of record

#	Name: 15945664
#	Creating user name:	landrgr1
#	Creation time:	28. 01. 2015 13:52

#	Modifying user name:	landrgr1
#	Modification time:	28. 01. 2015 13:52

#	Program:	corina 3.48 0006  22.01.2010

@<TRIPOS>MOLECULE
15945664
  74   77    0    0    0
SMALL
NO_CHARGES


@<TRIPOS>ATOM
   1 O1             0.6548     0.6195     0.4283 O.3     
   2 O2             4.3227    -4.5845   -13.2108 O.2     
   3 N3             2.7824    -0.5304    -0.9997 N.3     
   4 N4             4.7302    -0.3995    -2.3017 N.ar    
   5 N5             2.9467    -1.6432    -3.0592 N.ar    
   6 N6             6.7010    -0.2384    -3.5683 N.pl3   
   7 N7             4.8689    -1.4995    -4.3198 N.ar    
   8 N8             3.0640    -2.7745    -5.1128 N.pl3   
   9 N9             3.7451    -3.0255    -6.3112 N.2     
  10 N10            6.0527    -5.0719   -11.9102 N.am    
  11 C11            1.4470    -1.1451    -1.0182 C.3     
  12 C12            2.6823     0.9284    -0.8476 C.3     
  13 C13            0.7151    -0.8019     0.2819 C.3     
  14 C14            1.9379     1.2508     0.4509 C.3     
  15 C15            3.4952    -0.8617    -2.1342 C.ar    
  16 C16            5.4171    -0.7185    -3.3946 C.ar    
  17 C17            7.2434     0.6532    -2.6427 C.ar    
  18 C18            8.1159     1.6783    -3.0680 C.ar    
  19 C19            3.6334    -1.9623    -4.1522 C.ar    
  20 C20            8.6548     2.5723    -2.1102 C.ar    
  21 C21            6.9279     0.5449    -1.3055 C.ar    
  22 C22            8.4593     1.8277    -4.4202 C.ar    
  23 C23            8.3123     2.4233    -0.7551 C.ar    
  24 C24            7.4633     1.4298    -0.3738 C.ar    
  25 C25            9.5233     3.5928    -2.5335 C.ar    
  26 C26            9.3045     2.8280    -4.7946 C.ar    
  27 C27            9.8342     3.7081    -3.8538 C.ar    
  28 C28            3.1704    -3.7085    -7.2535 C.2     
  29 C29            3.9232    -4.0643    -8.4700 C.ar    
  30 C30            5.2843    -3.7617    -8.5652 C.ar    
  31 C31            3.2790    -4.7101    -9.5287 C.ar    
  32 C32            5.3388    -4.7341   -10.7568 C.ar    
  33 C33            1.7336    -4.1377    -7.1039 C.3     
  34 C34            5.9845    -4.0963    -9.7036 C.ar    
  35 C35            3.9861    -5.0414   -10.6638 C.ar    
  36 C36            5.4506    -5.0200   -13.1149 C.2     
  37 C37            6.1787    -5.5032   -14.3426 C.3     
  38 H38            0.8812    -0.7607    -1.8668 H       
  39 H39            1.5456    -2.2271    -1.1057 H       
  40 H40            3.6825     1.3600    -0.8105 H       
  41 H41            2.1361     1.3459    -1.6935 H       
  42 H42            1.2527    -1.2323     1.1268 H       
  43 H43           -0.2961    -1.2075     0.2483 H       
  44 H44            1.8111     2.3298     0.5394 H       
  45 H45            2.5111     0.8800     1.3007 H       
  46 H46            7.2252    -0.5214    -4.3338 H       
  47 H47            6.2572    -0.2352    -0.9767 H       
  48 H48            8.0558     1.1527    -5.1604 H       
  49 H49            8.7184     3.0997    -0.0175 H       
  50 H50            7.2015     1.3258     0.6688 H       
  51 H51            9.9417     4.2821    -1.8151 H       
  52 H52            2.1925    -3.1712    -4.9580 H       
  53 H53            9.5675     2.9405    -5.8360 H       
  54 H54           10.5017     4.4935    -4.1766 H       
  55 H55            5.7865    -3.2660    -7.7476 H       
  56 H56            2.2283    -4.9496    -9.4570 H       
  57 H57            1.0798    -3.3677    -7.5136 H       
  58 H58            1.5757    -5.0723    -7.6421 H       
  59 H59            1.5060    -4.2836    -6.0480 H       
  60 H60            7.0362    -3.8625    -9.7780 H       
  61 H61            3.4890    -5.5409   -11.4822 H       
  62 H62            6.9815    -5.3436   -11.8435 H       
  63 H63            5.5375    -5.3839   -15.2159 H       
  64 H64            7.0894    -4.9198   -14.4781 H       
  65 H65            6.4360    -6.5555   -14.2219 H       
  66 O66           17.4449    12.5418     7.2053 O.3     
  67 C67           17.4643    11.1129     7.1974 C.3     
  68 C68           16.0289    10.5833     7.2083 C.3     
  69 H69           17.9745    10.7614     6.3007 H       
  70 H70           17.9915    10.7518     8.0805 H       
  71 H71           15.5187    10.9349     8.1051 H       
  72 H72           15.5017    10.9444     6.3252 H       
  73 H73           16.0437     9.4935     7.2023 H       
  74 H74           18.3228    12.9471     7.1991 H       
@<TRIPOS>BOND
   1    1   13 1
   2    1   14 1
   3    2   36 2
   4    3   11 1
   5    3   12 1
   6    3   15 1
   7    4   15 ar
   8    4   16 ar
   9    5   15 ar
  10    5   19 ar
  11    6   16 1
  12    6   17 1
  13    6   46 1
  14    7   16 ar
  15    7   19 ar
  16    8    9 1
  17    8   19 1
  18    8   52 1
  19    9   28 2
  20   10   32 1
  21   10   36 am
  22   10   62 1
  23   11   13 1
  24   11   38 1
  25   11   39 1
  26   12   14 1
  27   12   40 1
  28   12   41 1
  29   13   42 1
  30   13   43 1
  31   14   44 1
  32   14   45 1
  33   17   18 ar
  34   17   21 ar
  35   18   20 ar
  36   18   22 ar
  37   20   23 ar
  38   20   25 ar
  39   21   24 ar
  40   21   47 1
  41   22   26 ar
  42   22   48 1
  43   23   24 ar
  44   23   49 1
  45   24   50 1
  46   25   27 ar
  47   25   51 1
  48   26   27 ar
  49   26   53 1
  50   27   54 1
  51   28   29 1
  52   28   33 1
  53   29   30 ar
  54   29   31 ar
  55   30   34 ar
  56   30   55 1
  57   31   35 ar
  58   31   56 1
  59   32   34 ar
  60   32   35 ar
  61   33   57 1
  62   33   58 1
  63   33   59 1
  64   34   60 1
  65   35   61 1
  66   36   37 1
  67   37   63 1
  68   37   64 1
  69   37   65 1
  70   66   67 1
  71   66   74 1
  72   67   68 1
  73   67   69 1
  74   67   70 1
  75   68   71 1
  76   68   72 1
  77   68   73 1

#	End of record

#	Name: 15945587
#	Creating user name:	landrgr1
#	Creation time:	28. 01. 2015 13:52

#	Modifying user name:	landrgr1
#	Modification time:	28. 01. 2015 13:52

#	Program:	corina 3.48 0006  22.01.2010

@<TRIPOS>MOLECULE
15945587
  36   37    0    0    0
SMALL
NO_CHARGES


@<TRIPOS>ATOM
   1 Cl1            0.0000     0.0000     0.0000 Cl      
   2 H2             0.0000     1.3700     0.0000 H       
   3 S3             8.4035    11.8109     6.1973 S.3     
   4 N4            14.0504    13.0441     6.1511 N.pl3   
   5 N5             7.0126     8.0026     6.1902 N.3     
   6 N6            10.5610    13.3965     6.1853 N.ar    
   7 N7            12.2672    11.3156     6.1586 N.ar    
   8 N8            10.9936    11.1278     6.1694 N.ar    
   9 C9            12.6925    14.8524     6.1734 C.ar    
  10 C10           14.0308    14.4271     6.1587 C.ar    
  11 C11           11.8682    13.6340     6.1745 C.ar    
  12 C12           12.7627    12.5465     6.1604 C.ar    
  13 C13            6.9927     9.4715     6.1982 C.3     
  14 C14            8.4281    10.0010     6.1874 C.3     
  15 C15           12.3942    16.2137     6.1839 C.ar    
  16 C16           15.0472    15.3774     6.1545 C.ar    
  17 C17           10.1344    12.1404     6.1826 C.ar    
  18 C18           13.4154    17.1388     6.1785 C.ar    
  19 C19           14.7371    16.7202     6.1650 C.ar    
  20 C20            7.5885     7.4771     7.4352 C.3     
  21 C21            5.6671     7.4591     5.9619 C.3     
  22 H22           14.8541    12.5013     6.1369 H       
  23 H23            6.4655     9.8325     5.3152 H       
  24 H24            6.4825     9.8230     7.0950 H       
  25 H25            8.9383     9.6495     5.2906 H       
  26 H26            8.9553     9.6400     7.0705 H       
  27 H27           11.3655    16.5426     6.1948 H       
  28 H28           16.0802    15.0623     6.1432 H       
  29 H29           13.1854    18.1940     6.1863 H       
  30 H30           15.5306    17.4528     6.1620 H       
  31 H31            6.9910     7.8139     8.2824 H       
  32 H32            7.5912     6.3876     7.4028 H       
  33 H33            8.6105     7.8399     7.5444 H       
  34 H34            5.2923     7.8089     5.0000 H       
  35 H35            5.7105     6.3700     5.9607 H       
  36 H36            5.0000     7.7953     6.7557 H       
@<TRIPOS>BOND
   1    1    2 1
   2    3   14 1
   3    3   17 1
   4    4   10 1
   5    4   12 1
   6    4   22 1
   7    5   13 1
   8    5   20 1
   9    5   21 1
  10    6   11 ar
  11    6   17 ar
  12    7    8 ar
  13    7   12 ar
  14    8   17 ar
  15    9   10 ar
  16    9   11 1
  17    9   15 ar
  18   10   16 ar
  19   11   12 ar
  20   13   14 1
  21   13   23 1
  22   13   24 1
  23   14   25 1
  24   14   26 1
  25   15   18 ar
  26   15   27 1
  27   16   19 ar
  28   16   28 1
  29   18   19 ar
  30   18   29 1
  31   19   30 1
  32   20   31 1
  33   20   32 1
  34   20   33 1
  35   21   34 1
  36   21   35 1
  37   21   36 1

#	End of record

#	Name: 15945565
#	Creating user name:	landrgr1
#	Creation time:	28. 01. 2015 13:52

#	Modifying user name:	landrgr1
#	Modification time:	28. 01. 2015 13:52

#	Program:	corina 3.48 0006  22.01.2010

@<TRIPOS>MOLECULE
15945565
  48   50    0    0    0
SMALL
NO_CHARGES


@<TRIPOS>ATOM
   1 Br1            0.0000     0.0000     0.0000 Br      
   2 H2             0.0000     1.5100     0.0000 H       
   3 F3             6.6458    13.3083     8.5901 F       
   4 N4            10.3232    11.6726     6.9723 N.pl3   
   5 N5             8.2043    10.9757     6.9880 N.pl3   
   6 N6             8.6062    13.3238     6.9898 N.2     
   7 C7            10.3422    10.2784     6.9646 C.ar    
   8 C8             9.0164     9.8424     6.9744 C.ar    
   9 C9            11.4980    12.5479     6.9658 C.3     
  10 C10            9.0142    12.0828     6.9810 C.2     
  11 C11            6.7394    10.9829     7.0014 C.3     
  12 C12           11.8932    12.8603     5.5211 C.3     
  13 C13           11.3735     9.3511     6.9506 C.ar    
  14 C14            8.7367     8.4839     6.9740 C.ar    
  15 C15            6.2501    10.9777     8.4268 C.ar    
  16 C16           13.1016    13.7607     5.5144 C.ar    
  17 C17           11.0850     7.9999     6.9464 C.ar    
  18 C18            9.7708     7.5677     6.9582 C.ar    
  19 C19            6.2279    12.1548     9.1558 C.ar    
  20 C20            5.8180     9.7994     9.0049 C.ar    
  21 C21           14.3710    13.2137     5.4993 C.ar    
  22 C22           12.9406    15.1337     5.5176 C.ar    
  23 C23            5.7777    12.1486    10.4649 C.ar    
  24 C24            5.3685     9.7944    10.3124 C.ar    
  25 C25           15.4795    14.0396     5.4932 C.ar    
  26 C26           14.0491    15.9596     5.5114 C.ar    
  27 C27            5.3509    10.9678    11.0428 C.ar    
  28 C28           15.3186    15.4125     5.5017 C.ar    
  29 H29           11.2626    13.4758     7.4869 H       
  30 H30           12.3259    12.0485     7.4690 H       
  31 H31            6.3758    11.8774     6.4957 H       
  32 H32            6.3670    10.0974     6.4862 H       
  33 H33           12.1286    11.9324     5.0000 H       
  34 H34           11.0652    13.3597     5.0178 H       
  35 H35           12.4006     9.6848     6.9426 H       
  36 H36            7.7121     8.1428     6.9862 H       
  37 H37           11.8885     7.2783     6.9354 H       
  38 H38            9.5523     6.5100     6.9582 H       
  39 H39            9.2527    14.0469     6.9905 H       
  40 H40            5.8310     8.8820     8.4350 H       
  41 H41           14.4968    12.1411     5.4927 H       
  42 H42           11.9488    15.5610     5.5245 H       
  43 H43            5.7604    13.0660    11.0346 H       
  44 H44            5.0307     8.8730    10.7634 H       
  45 H45           16.4713    13.6122     5.4822 H       
  46 H46           13.9233    17.0322     5.5136 H       
  47 H47            5.0000    10.9626    12.0642 H       
  48 H48           16.1846    16.0578     5.4973 H       
@<TRIPOS>BOND
   1    1    2 1
   2    3   19 1
   3    4    7 1
   4    4    9 1
   5    4   10 1
   6    5    8 1
   7    5   10 1
   8    5   11 1
   9    6   10 2
  10    6   39 1
  11    7    8 ar
  12    7   13 ar
  13    8   14 ar
  14    9   12 1
  15    9   29 1
  16    9   30 1
  17   11   15 1
  18   11   31 1
  19   11   32 1
  20   12   16 1
  21   12   33 1
  22   12   34 1
  23   13   17 ar
  24   13   35 1
  25   14   18 ar
  26   14   36 1
  27   15   19 ar
  28   15   20 ar
  29   16   21 ar
  30   16   22 ar
  31   17   18 ar
  32   17   37 1
  33   18   38 1
  34   19   23 ar
  35   20   24 ar
  36   20   40 1
  37   21   25 ar
  38   21   41 1
  39   22   26 ar
  40   22   42 1
  41   23   27 ar
  42   23   43 1
  43   24   27 ar
  44   24   44 1
  45   25   28 ar
  46   25   45 1
  47   26   28 ar
  48   26   46 1
  49   27   47 1
  50   28   48 1

#	End of record

#	Name: 15945563
#	Creating user name:	landrgr1
#	Creation time:	28. 01. 2015 13:52

#	Modifying user name:	landrgr1
#	Modification time:	28. 01. 2015 13:52

#	Program:	corina 3.48 0006  22.01.2010

@<TRIPOS>MOLECULE
15945563
  50   53    0    0    0
SMALL
NO_CHARGES


@<TRIPOS>ATOM
   1 O1            -0.0173     1.4248     0.0099 O.3     
   2 N2            -3.4624    -6.6600     0.0004 N.pl3   
   3 N3            -2.7870    -2.5706     0.0149 N.pl3   
   4 N4            -2.0155    -4.7810    -0.0044 N.2     
   5 N5            -3.2912    -8.0493    -0.0083 N.2     
   6 N6            -2.0324    -8.3143    -0.0169 N.2     
   7 C7            -4.3951    -4.4509     0.0165 C.ar    
   8 C8            -4.5808    -5.8457     0.0105 C.ar    
   9 C9            -3.0206    -3.9301     0.0098 C.2     
  10 C10           -1.4126    -2.0635     0.0045 C.3     
  11 C11           -1.4333    -0.5336     0.0129 C.3     
  12 C12           -2.2087    -6.1081    -0.0092 C.2     
  13 C13            0.0021    -0.0041     0.0020 C.3     
  14 C14           -1.3192    -7.1842    -0.0145 C.2     
  15 C15           -5.5016    -3.6020     0.0262 C.ar    
  16 C16           -5.8658    -6.3675     0.0143 C.ar    
  17 C17            1.2801     2.0237     0.0007 C.3     
  18 C18            0.1586    -7.0896    -0.0219 C.ar    
  19 C19           -6.7701    -4.1400     0.0299 C.ar    
  20 C20           -6.9510    -5.5153     0.0239 C.ar    
  21 C21            1.2127     3.3755    -0.7127 C.3     
  22 C22            1.7569     2.2297     1.4398 C.3     
  23 C23            0.9243    -8.0351     0.6605 C.ar    
  24 C24            0.7909    -6.0579    -0.7160 C.ar    
  25 C25            2.3008    -7.9415     0.6500 C.ar    
  26 C26            2.1681    -5.9751    -0.7190 C.ar    
  27 C27            2.9218    -6.9124    -0.0352 C.ar    
  28 H28           -0.8854    -2.4246     0.8875 H       
  29 H29           -0.9024    -2.4150    -0.8923 H       
  30 H30           -1.9605    -0.1726    -0.8702 H       
  31 H31           -1.9435    -0.1821     0.9097 H       
  32 H32           -3.5327    -1.9503     0.0253 H       
  33 H33            0.5123    -0.3556    -0.8948 H       
  34 H34            0.5293    -0.3651     0.8851 H       
  35 H35           -5.3651    -2.5307     0.0309 H       
  36 H36           -6.0166    -7.4369     0.0094 H       
  37 H37            1.9780     1.3707    -0.5233 H       
  38 H38           -7.6297    -3.4862     0.0377 H       
  39 H39           -7.9511    -5.9230     0.0265 H       
  40 H40            0.5148     4.0285    -0.1887 H       
  41 H41            2.2023     3.8324    -0.7197 H       
  42 H42            0.8730     3.2288    -1.7380 H       
  43 H43            1.8049     1.2667     1.9481 H       
  44 H44            2.7465     2.6866     1.4328 H       
  45 H45            1.0590     2.8827     1.9639 H       
  46 H46            0.4406    -8.8385     1.1963 H       
  47 H47            0.2036    -5.3256    -1.2502 H       
  48 H48            2.8947    -8.6729     1.1779 H       
  49 H49            2.6589    -5.1771    -1.2563 H       
  50 H50            3.9996    -6.8430    -0.0399 H       
@<TRIPOS>BOND
   1    1   13 1
   2    1   17 1
   3    2    5 1
   4    2    8 1
   5    2   12 1
   6    3    9 1
   7    3   10 1
   8    3   32 1
   9    4    9 2
  10    4   12 1
  11    5    6 2
  12    6   14 1
  13    7    8 ar
  14    7    9 1
  15    7   15 ar
  16    8   16 ar
  17   10   11 1
  18   10   28 1
  19   10   29 1
  20   11   13 1
  21   11   30 1
  22   11   31 1
  23   12   14 2
  24   13   33 1
  25   13   34 1
  26   14   18 1
  27   15   19 ar
  28   15   35 1
  29   16   20 ar
  30   16   36 1
  31   17   21 1
  32   17   22 1
  33   17   37 1
  34   18   23 ar
  35   18   24 ar
  36   19   20 ar
  37   19   38 1
  38   20   39 1
  39   21   40 1
  40   21   41 1
  41   21   42 1
  42   22   43 1
  43   22   44 1
  44   22   45 1
  45   23   25 ar
  46   23   46 1
  47   24   26 ar
  48   24   47 1
  49   25   27 ar
  50   25   48 1
  51   26   27 ar
  52   26   49 1
  53   27   50 1

#	End of record

#	Name: 15945553
#	Creating user name:	landrgr1
#	Creation time:	28. 01. 2015 13:52

#	Modifying user name:	landrgr1
#	Modification time:	28. 01. 2015 13:52

#	Program:	corina 3.48 0006  22.01.2010

@<TRIPOS>MOLECULE
15945553
  57   60    0    0    0
SMALL
NO_CHARGES


@<TRIPOS>ATOM
   1 S1            -0.0211     1.7054     0.0114 S.3     
   2 O2            -2.4758     0.9452     0.0317 O.2     
   3 O3           -13.5020    -6.3377     1.7299 O.3     
   4 O4           -11.7597    -4.7034     5.8420 O.3     
   5 N5            -7.7675    -2.2700     1.2048 N.pl3   
   6 N6            -7.6512    -2.4000    -1.1443 N.2     
   7 N7            -8.5911    -2.7665     2.2216 N.2     
   8 N8            -1.1264    -0.8157     0.0084 N.am    
   9 N9             1.2252    -0.4331    -0.0120 N.2     
  10 C10           -6.0579    -1.1481     0.0549 C.2     
  11 C11           -6.6606    -1.4709     1.2251 C.2     
  12 C12           -4.8345    -0.2682     0.0479 C.3     
  13 C13           -6.5836    -1.6375    -1.1498 C.2     
  14 C14           -8.2556    -2.7276     0.0067 C.2     
  15 C15           -3.5783    -1.1415     0.0306 C.3     
  16 C16           -9.5426    -3.5038     1.6758 C.2     
  17 C17           -9.3720    -3.5000     0.2895 C.2     
  18 C18           -6.1164    -0.9539     2.5318 C.3     
  19 C19           -5.9216    -1.2828    -2.4563 C.3     
  20 C20          -10.6204    -4.2098     2.4131 C.ar    
  21 C21           -2.3549    -0.2616     0.0236 C.2     
  22 C22          -10.6871    -4.1251     3.8015 C.ar    
  23 C23          -11.5701    -4.9536     1.7173 C.ar    
  24 C24          -12.5749    -5.6117     2.4083 C.ar    
  25 C25          -11.6942    -4.7853     4.4870 C.ar    
  26 C26          -12.6356    -5.5297     3.7916 C.ar    
  27 C27            0.0021    -0.0041     0.0020 C.2     
  28 C28            2.1786     0.4796    -0.0162 C.2     
  29 C29            1.7402     1.7399    -0.0052 C.2     
  30 C30          -14.5095    -6.9901     2.5054 C.3     
  31 C31          -12.8238    -5.4088     6.4839 C.3     
  32 C32            3.6437     0.1269    -0.0325 C.3     
  33 H33           -4.8482     0.3662    -0.8384 H       
  34 H34           -4.8308     0.3560     0.9415 H       
  35 H35           -3.5645    -1.7759     0.9169 H       
  36 H36           -3.5820    -1.7657    -0.8630 H       
  37 H37           -9.9943    -4.0097    -0.4312 H       
  38 H38           -6.7334    -1.3197     3.3526 H       
  39 H39           -5.0925    -1.3040     2.6630 H       
  40 H40           -6.1297     0.1360     2.5252 H       
  41 H41           -6.4670    -1.7472    -3.2778 H       
  42 H42           -5.9255    -0.2003    -2.5835 H       
  43 H43           -4.8933    -1.6445    -2.4525 H       
  44 H44           -9.9543    -3.5456     4.3435 H       
  45 H45          -11.5237    -5.0173     0.6402 H       
  46 H46           -1.0297    -1.7808     0.0020 H       
  47 H47          -13.4201    -6.0428     4.3279 H       
  48 H48            2.3573     2.6262    -0.0063 H       
  49 H49          -14.0397    -7.6887     3.1977 H       
  50 H50          -15.0741    -6.2460     3.0674 H       
  51 H51          -15.1834    -7.5331     1.8427 H       
  52 H52          -12.7429    -6.4721     6.2583 H       
  53 H53          -12.7600    -5.2601     7.5618 H       
  54 H54          -13.7802    -5.0322     6.1212 H       
  55 H55            3.9869     0.0481    -1.0641 H       
  56 H56            4.2102     0.9041     0.4806 H       
  57 H57            3.7936    -0.8265     0.4741 H       
@<TRIPOS>BOND
   1    1   27 1
   2    1   29 1
   3    2   21 2
   4    3   24 1
   5    3   30 1
   6    4   25 1
   7    4   31 1
   8    5    7 1
   9    5   11 1
  10    5   14 1
  11    6   13 2
  12    6   14 1
  13    7   16 2
  14    8   21 am
  15    8   27 1
  16    8   46 1
  17    9   27 2
  18    9   28 1
  19   10   11 2
  20   10   12 1
  21   10   13 1
  22   11   18 1
  23   12   15 1
  24   12   33 1
  25   12   34 1
  26   13   19 1
  27   14   17 2
  28   15   21 1
  29   15   35 1
  30   15   36 1
  31   16   17 1
  32   16   20 1
  33   17   37 1
  34   18   38 1
  35   18   39 1
  36   18   40 1
  37   19   41 1
  38   19   42 1
  39   19   43 1
  40   20   22 ar
  41   20   23 ar
  42   22   25 ar
  43   22   44 1
  44   23   24 ar
  45   23   45 1
  46   24   26 ar
  47   25   26 ar
  48   26   47 1
  49   28   29 2
  50   28   32 1
  51   29   48 1
  52   30   49 1
  53   30   50 1
  54   30   51 1
  55   31   52 1
  56   31   53 1
  57   31   54 1
  58   32   55 1
  59   32   56 1
  60   32   57 1

#	End of record

#	Name: 15945543
#	Creating user name:	landrgr1
#	Creation time:	28. 01. 2015 13:52

#	Modifying user name:	landrgr1
#	Modification time:	28. 01. 2015 13:52

#	Program:	corina 3.48 0006  22.01.2010

@<TRIPOS>MOLECULE
15945543
  49   52    0    0    0
SMALL
NO_CHARGES


@<TRIPOS>ATOM
   1 S1            -0.0211     1.7054     0.0114 S.3     
   2 F2           -11.7642    -4.7015     5.8296 F       
   3 O3            -2.4758     0.9452     0.0317 O.2     
   4 N4            -7.7677    -2.2697     1.2048 N.pl3   
   5 N5            -7.6506    -2.4009    -1.1442 N.2     
   6 N6            -8.5918    -2.7654     2.2215 N.2     
   7 N7            -1.1264    -0.8157     0.0084 N.am    
   8 N8             1.2252    -0.4331    -0.0120 N.2     
   9 C9            -6.0579    -1.1481     0.0549 C.2     
  10 C10           -6.6606    -1.4709     1.2251 C.2     
  11 C11           -4.8345    -0.2682     0.0479 C.3     
  12 C12           -6.5828    -1.6386    -1.1497 C.2     
  13 C13           -8.2555    -2.7278     0.0067 C.2     
  14 C14           -3.5783    -1.1415     0.0306 C.3     
  15 C15           -9.5439    -3.5021     1.6757 C.2     
  16 C16           -9.3723    -3.4996     0.2894 C.2     
  17 C17           -6.1162    -0.9542     2.5319 C.3     
  18 C18           -5.9202    -1.2847    -2.4561 C.3     
  19 C19          -10.6222    -4.2072     2.4129 C.ar    
  20 C20           -2.3549    -0.2616     0.0236 C.2     
  21 C21          -10.6898    -4.1229     3.8013 C.ar    
  22 C22          -11.5734    -4.9510     1.7174 C.ar    
  23 C23          -11.6967    -4.7814     4.4827 C.ar    
  24 C24          -12.5747    -5.6047     2.4064 C.ar    
  25 C25            0.0021    -0.0041     0.0020 C.2     
  26 C26          -12.6361    -5.5234     3.7857 C.ar    
  27 C27            2.1786     0.4796    -0.0162 C.2     
  28 C28            1.7402     1.7399    -0.0052 C.2     
  29 C29            3.6437     0.1269    -0.0325 C.3     
  30 H30           -4.8482     0.3662    -0.8384 H       
  31 H31           -4.8308     0.3560     0.9415 H       
  32 H32           -3.5645    -1.7759     0.9169 H       
  33 H33           -3.5820    -1.7657    -0.8630 H       
  34 H34           -9.9943    -4.0096    -0.4313 H       
  35 H35           -6.7332    -1.3200     3.3526 H       
  36 H36           -5.0924    -1.3046     2.6629 H       
  37 H37           -6.1292     0.1357     2.5254 H       
  38 H38           -6.4654    -1.7494    -3.2776 H       
  39 H39           -5.9238    -0.2022    -2.5838 H       
  40 H40           -4.8920    -1.6466    -2.4518 H       
  41 H41           -9.9571    -3.5446     4.3447 H       
  42 H42          -11.5274    -5.0154     0.6403 H       
  43 H43           -1.0297    -1.7808     0.0020 H       
  44 H44          -13.3119    -6.1812     1.8673 H       
  45 H45          -13.4212    -6.0369     4.3207 H       
  46 H46            2.3573     2.6262    -0.0063 H       
  47 H47            3.9869     0.0481    -1.0641 H       
  48 H48            4.2102     0.9041     0.4806 H       
  49 H49            3.7936    -0.8265     0.4741 H       
@<TRIPOS>BOND
   1    1   25 1
   2    1   28 1
   3    2   23 1
   4    3   20 2
   5    4    6 1
   6    4   10 1
   7    4   13 1
   8    5   12 2
   9    5   13 1
  10    6   15 2
  11    7   20 am
  12    7   25 1
  13    7   43 1
  14    8   25 2
  15    8   27 1
  16    9   10 2
  17    9   11 1
  18    9   12 1
  19   10   17 1
  20   11   14 1
  21   11   30 1
  22   11   31 1
  23   12   18 1
  24   13   16 2
  25   14   20 1
  26   14   32 1
  27   14   33 1
  28   15   16 1
  29   15   19 1
  30   16   34 1
  31   17   35 1
  32   17   36 1
  33   17   37 1
  34   18   38 1
  35   18   39 1
  36   18   40 1
  37   19   21 ar
  38   19   22 ar
  39   21   23 ar
  40   21   41 1
  41   22   24 ar
  42   22   42 1
  43   23   26 ar
  44   24   26 ar
  45   24   44 1
  46   26   45 1
  47   27   28 2
  48   27   29 1
  49   28   46 1
  50   29   47 1
  51   29   48 1
  52   29   49 1

#	End of record

#	Name: 15945542
#	Creating user name:	landrgr1
#	Creation time:	28. 01. 2015 13:52

#	Modifying user name:	landrgr1
#	Modification time:	28. 01. 2015 13:52

#	Program:	corina 3.48 0006  22.01.2010

@<TRIPOS>MOLECULE
15945542
  66   70    0    0    0
SMALL
NO_CHARGES


@<TRIPOS>ATOM
   1 O1            -0.0164     1.3569     0.0095 O.3     
   2 O2             2.2822    -0.0326    -0.7195 O.3     
   3 O3            -3.9979    -4.0438     2.5421 O.2     
   4 O4            -1.0431    -8.0880    10.7184 O.3     
   5 N5            -2.4839    -8.2545     6.9797 N.pl3   
   6 N6            -2.0082    -4.0037     1.5616 N.am    
   7 N7            -3.1125    -9.6590     5.1961 N.2     
   8 N8            -1.9746    -8.4040     8.2747 N.2     
   9 C9            -3.3031    -7.3214     4.9893 C.2     
  10 C10           -3.6861    -6.1247     4.1573 C.3     
  11 C11           -2.8240    -7.1545     6.2462 C.2     
  12 C12           -2.5103    -5.7285     3.2622 C.3     
  13 C13           -2.3805    -2.8404     0.7528 C.3     
  14 C14           -3.4415    -8.6167     4.4702 C.2     
  15 C15           -2.6365    -9.5071     6.4402 C.2     
  16 C16           -1.1379    -2.0844     0.3583 C.ar    
  17 C17           -2.8932    -4.5317     2.4302 C.2     
  18 C18           -2.6690    -5.7725     6.8267 C.3     
  19 C19           -1.8139    -9.6925     8.5222 C.2     
  20 C20           -2.2225   -10.4180     7.4002 C.2     
  21 C21           -3.1141    -3.3079    -0.5058 C.3     
  22 C22           -1.1403    -0.7025     0.3641 C.ar    
  23 C23           -3.9744    -8.8126     3.0742 C.3     
  24 C24            0.0021    -0.0041     0.0020 C.ar    
  25 C25            0.0026    -2.7746    -0.0079 C.ar    
  26 C26            1.1491    -0.6979    -0.3643 C.ar    
  27 C27           -1.2947   -10.2726     9.7853 C.ar    
  28 C28            1.1444    -2.0849    -0.3692 C.ar    
  29 C29            1.2537     2.0178     0.0009 C.3     
  30 C30            2.1358     1.3497    -1.0625 C.3     
  31 C31           -0.9269    -9.4357    10.8433 C.ar    
  32 C32           -1.1771   -11.6530     9.9245 C.ar    
  33 C33           -0.4431    -9.9858    12.0192 C.ar    
  34 C34           -0.6935   -12.1880    11.1017 C.ar    
  35 C35           -0.3245   -11.3572    12.1446 C.ar    
  36 C36           -0.6482    -7.2961    11.8405 C.3     
  37 H37           -4.5471    -6.3739     3.5371 H       
  38 H38           -3.9398    -5.2921     4.8135 H       
  39 H39           -1.6493    -5.4792     3.8824 H       
  40 H40           -2.2565    -6.5610     2.6060 H       
  41 H41           -3.0336    -2.1885     1.3330 H       
  42 H42           -1.1247    -4.3940     1.4721 H       
  43 H43           -2.2728    -5.8461     7.8395 H       
  44 H44           -1.9822    -5.1939     6.2090 H       
  45 H45           -3.6400    -5.2779     6.8515 H       
  46 H46           -2.2135   -11.4931     7.2977 H       
  47 H47           -2.4611    -3.9598    -1.0860 H       
  48 H48           -4.0129    -3.8547    -0.2205 H       
  49 H49           -3.3911    -2.4424    -1.1076 H       
  50 H50           -2.0327    -0.1657     0.6502 H       
  51 H51           -4.0144    -9.8779     2.8468 H       
  52 H52           -4.9761    -8.3885     3.0049 H       
  53 H53           -3.3182    -8.3133     2.3614 H       
  54 H54            0.0012    -3.8546    -0.0121 H       
  55 H55            2.0339    -2.6264    -0.6553 H       
  56 H56            1.1181     3.0714    -0.2430 H       
  57 H57            1.7235     1.9240     0.9800 H       
  58 H58            3.1145     1.8291    -1.0827 H       
  59 H59            1.6625     1.4377    -2.0404 H       
  60 H60           -1.4642   -12.3046     9.1125 H       
  61 H61           -0.1580    -9.3425    12.8384 H       
  62 H62           -0.6029   -13.2588    11.2089 H       
  63 H63            0.0538   -11.7824    13.0625 H       
  64 H64           -0.7911    -6.2407    11.6086 H       
  65 H65           -1.2550    -7.5635    12.7055 H       
  66 H66            0.4029    -7.4801    12.0631 H       
@<TRIPOS>BOND
   1    1   24 1
   2    1   29 1
   3    2   26 1
   4    2   30 1
   5    3   17 2
   6    4   31 1
   7    4   36 1
   8    5    8 1
   9    5   11 1
  10    5   15 1
  11    6   13 1
  12    6   17 am
  13    6   42 1
  14    7   14 2
  15    7   15 1
  16    8   19 2
  17    9   10 1
  18    9   11 2
  19    9   14 1
  20   10   12 1
  21   10   37 1
  22   10   38 1
  23   11   18 1
  24   12   17 1
  25   12   39 1
  26   12   40 1
  27   13   16 1
  28   13   21 1
  29   13   41 1
  30   14   23 1
  31   15   20 2
  32   16   22 ar
  33   16   25 ar
  34   18   43 1
  35   18   44 1
  36   18   45 1
  37   19   20 1
  38   19   27 1
  39   20   46 1
  40   21   47 1
  41   21   48 1
  42   21   49 1
  43   22   24 ar
  44   22   50 1
  45   23   51 1
  46   23   52 1
  47   23   53 1
  48   24   26 ar
  49   25   28 ar
  50   25   54 1
  51   26   28 ar
  52   27   31 ar
  53   27   32 ar
  54   28   55 1
  55   29   30 1
  56   29   56 1
  57   29   57 1
  58   30   58 1
  59   30   59 1
  60   31   33 ar
  61   32   34 ar
  62   32   60 1
  63   33   35 ar
  64   33   61 1
  65   34   35 ar
  66   34   62 1
  67   35   63 1
  68   36   64 1
  69   36   65 1
  70   36   66 1

#	End of record

#	Name: 15945532
#	Creating user name:	landrgr1
#	Creation time:	28. 01. 2015 13:52

#	Modifying user name:	landrgr1
#	Modification time:	28. 01. 2015 13:52

#	Program:	corina 3.48 0006  22.01.2010

@<TRIPOS>MOLECULE
15945532
  55   59    0    0    0
SMALL
NO_CHARGES


@<TRIPOS>ATOM
   1 F1             2.3039    -2.0203    -2.5177 F       
   2 O2             3.5511     0.4147    -2.2161 O.2     
   3 O3             1.5317     4.1718    -0.7844 O.2     
   4 O4            -0.7999     3.8356    -0.3481 O.2     
   5 N5            -0.1675     1.7094    -0.2406 N.am    
   6 N6            -0.3753     0.3470    -0.2550 N.3     
   7 N7             2.6711     2.4353    -1.6896 N.am    
   8 C8             1.9767     0.6351    -0.3879 C.3     
   9 C9             1.2551     1.9271     0.0886 C.3     
  10 C10            0.8140    -0.2225    -0.9401 C.3     
  11 C11            2.8317     1.1157    -1.5374 C.2     
  12 C12            1.8149     2.9938    -0.8265 C.2     
  13 C13            0.9986    -1.6719    -0.5709 C.ar    
  14 C14           -1.0879     2.6628    -0.4864 C.2     
  15 C15            3.3448     3.1725    -2.6736 C.ar    
  16 C16            1.7433    -2.5055    -1.3883 C.ar    
  17 C17            0.4297    -2.1682     0.5864 C.ar    
  18 C18           -2.4477     2.2822    -0.9243 C.ar    
  19 C19            4.7320     3.1543    -2.7285 C.ar    
  20 C20            2.6260     3.9175    -3.5983 C.ar    
  21 C21            1.9124    -3.8366    -1.0476 C.ar    
  22 C22            0.5994    -3.4978     0.9257 C.ar    
  23 C23            1.3380    -4.3321     0.1078 C.ar    
  24 C24            5.3928     3.8816    -3.6989 C.ar    
  25 C25           -3.4396     3.2552    -1.0564 C.ar    
  26 C26           -2.7436     0.9490    -1.2131 C.ar    
  27 C27            3.2926     4.6430    -4.5666 C.ar    
  28 C28            4.6742     4.6275    -4.6153 C.ar    
  29 C29           -4.7063     2.8934    -1.4659 C.ar    
  30 C30           -4.0144     0.6006    -1.6217 C.ar    
  31 C31            6.8985     3.8627    -3.7589 C.3     
  32 C32           -4.9946     1.5693    -1.7450 C.ar    
  33 C33           -6.3807     1.1813    -2.1914 C.3     
  34 H34            2.5402     0.1371     0.4011 H       
  35 H35            1.4153     2.1380     1.1460 H       
  36 H36            0.7288    -0.1067    -2.0206 H       
  37 H37           -0.4606    -0.0157     0.6827 H       
  38 H38           -0.1473    -1.5172     1.2264 H       
  39 H39            5.2937     2.5723    -2.0129 H       
  40 H40            1.5467     3.9298    -3.5609 H       
  41 H41            2.4927    -4.4878    -1.6846 H       
  42 H42            0.1546    -3.8847     1.8306 H       
  43 H43            1.4696    -5.3705     0.3736 H       
  44 H44           -3.2161     4.2890    -0.8381 H       
  45 H45           -1.9793     0.1920    -1.1172 H       
  46 H46            2.7339     5.2228    -5.2864 H       
  47 H47            5.1932     5.1957    -5.3731 H       
  48 H48           -5.4748     3.6453    -1.5684 H       
  49 H49           -4.2447    -0.4306    -1.8454 H       
  50 H50            7.2262     3.0480    -4.4046 H       
  51 H51            7.2581     4.8107    -4.1592 H       
  52 H52            7.3003     3.7159    -2.7564 H       
  53 H53           -6.4406     1.2345    -3.2785 H       
  54 H54           -6.5960     0.1638    -1.8651 H       
  55 H55           -7.1081     1.8649    -1.7536 H       
@<TRIPOS>BOND
   1    1   16 1
   2    2   11 2
   3    3   12 2
   4    4   14 2
   5    5    6 1
   6    5    9 1
   7    5   14 am
   8    6   10 1
   9    6   37 1
  10    7   11 am
  11    7   12 am
  12    7   15 1
  13    8    9 1
  14    8   10 1
  15    8   11 1
  16    8   34 1
  17    9   12 1
  18    9   35 1
  19   10   13 1
  20   10   36 1
  21   13   16 ar
  22   13   17 ar
  23   14   18 1
  24   15   19 ar
  25   15   20 ar
  26   16   21 ar
  27   17   22 ar
  28   17   38 1
  29   18   25 ar
  30   18   26 ar
  31   19   24 ar
  32   19   39 1
  33   20   27 ar
  34   20   40 1
  35   21   23 ar
  36   21   41 1
  37   22   23 ar
  38   22   42 1
  39   23   43 1
  40   24   28 ar
  41   24   31 1
  42   25   29 ar
  43   25   44 1
  44   26   30 ar
  45   26   45 1
  46   27   28 ar
  47   27   46 1
  48   28   47 1
  49   29   32 ar
  50   29   48 1
  51   30   32 ar
  52   30   49 1
  53   31   50 1
  54   31   51 1
  55   31   52 1
  56   32   33 1
  57   33   53 1
  58   33   54 1
  59   33   55 1

#	End of record

#	Name: 15945492
#	Creating user name:	landrgr1
#	Creation time:	28. 01. 2015 13:52

#	Modifying user name:	landrgr1
#	Modification time:	28. 01. 2015 13:52

#	Program:	corina 3.48 0006  22.01.2010

@<TRIPOS>MOLECULE
15945492
  62   65    0    0    0
SMALL
NO_CHARGES


@<TRIPOS>ATOM
   1 O1            -2.2529    -9.6743   -11.8307 O.2     
   2 O2             0.4377    -9.0372   -10.1732 O.2     
   3 O3             0.0885    -6.8765    -0.7380 O.2     
   4 O4            -0.0164     1.3548     0.0095 O.3     
   5 N5            -4.1050    -8.7926    -9.2480 N.pl3   
   6 N6            -1.3414    -8.1520    -7.5408 N.pl3   
   7 N7             0.0532    -4.7583    -1.4047 N.am    
   8 C8            -5.0926    -9.1630   -10.2647 C.3     
   9 C9            -6.3920    -9.5927    -9.5808 C.3     
  10 C10           -5.3666    -7.9613   -11.1712 C.3     
  11 C11           -7.4234    -9.9795   -10.6427 C.3     
  12 C12           -6.3980    -8.3481   -12.2330 C.3     
  13 C13           -7.6974    -8.7778   -11.5491 C.3     
  14 C14           -2.7649    -8.8690    -9.5332 C.2     
  15 C15           -1.5984    -8.5986    -8.8126 C.2     
  16 C16           -1.9920    -9.2729   -10.7121 C.2     
  17 C17           -0.7573    -8.9805    -9.9516 C.2     
  18 C18            0.0419    -7.9727    -7.0929 C.3     
  19 C19            0.0490    -7.4776    -5.6696 C.ar    
  20 C20            0.0714    -8.3846    -4.6250 C.ar    
  21 C21            0.0387    -6.1180    -5.4133 C.ar    
  22 C22            0.0619    -6.5678    -3.0542 C.ar    
  23 C23            0.0780    -7.9379    -3.3197 C.ar    
  24 C24            0.0450    -5.6581    -4.1126 C.ar    
  25 C25            0.0688    -6.0820    -1.6578 C.2     
  26 C26            0.0600    -4.2770    -0.0210 C.3     
  27 C27            0.0396    -2.7702    -0.0132 C.ar    
  28 C28           -1.1677    -2.0964     0.0019 C.ar    
  29 C29            1.2282    -2.0638    -0.0155 C.ar    
  30 C30           -1.1891    -0.7152     0.0096 C.ar    
  31 C31            1.2122    -0.6825    -0.0079 C.ar    
  32 C32            0.0021    -0.0041     0.0020 C.ar    
  33 C33            1.2479     2.0208     0.0010 C.3     
  34 H34           -4.7065    -9.9885   -10.8626 H       
  35 H35           -6.1968   -10.4489    -8.9350 H       
  36 H36           -6.7782    -8.7672    -8.9829 H       
  37 H37           -5.7528    -7.1357   -10.5733 H       
  38 H38           -4.4409    -7.6551   -11.6584 H       
  39 H39           -7.0373   -10.8051   -11.2406 H       
  40 H40           -8.3492   -10.2857   -10.1555 H       
  41 H41           -6.5932    -7.4919   -12.8788 H       
  42 H42           -6.0119    -9.1736   -12.8309 H       
  43 H43           -8.4322    -9.0534   -12.3056 H       
  44 H44           -8.0836    -7.9523   -10.9512 H       
  45 H45           -4.3984    -8.4933    -8.3732 H       
  46 H46           -2.0756    -7.9549    -6.9383 H       
  47 H47            0.5683    -8.9256    -7.1488 H       
  48 H48            0.5397    -7.2446    -7.7334 H       
  49 H49            0.0835    -9.4445    -4.8319 H       
  50 H50            0.0260    -5.4152    -6.2332 H       
  51 H51            0.0952    -8.6469    -2.5052 H       
  52 H52            0.0374    -4.5966    -3.9139 H       
  53 H53           -0.8199    -4.6550     0.4995 H       
  54 H54            0.9598    -4.6308     0.4823 H       
  55 H55            0.0375    -4.1244    -2.1386 H       
  56 H56           -2.0947    -2.6504     0.0075 H       
  57 H57            2.1700    -2.5924    -0.0228 H       
  58 H58           -2.1324    -0.1893     0.0210 H       
  59 H59            2.1409    -0.1312    -0.0093 H       
  60 H60            1.0905     3.0993     0.0083 H       
  61 H61            1.8173     1.7308     0.8840 H       
  62 H62            1.8003     1.7403    -0.8958 H       
@<TRIPOS>BOND
   1    1   16 2
   2    2   17 2
   3    3   25 2
   4    4   32 1
   5    4   33 1
   6    5    8 1
   7    5   14 1
   8    5   45 1
   9    6   15 1
  10    6   18 1
  11    6   46 1
  12    7   25 am
  13    7   26 1
  14    7   55 1
  15    8    9 1
  16    8   10 1
  17    8   34 1
  18    9   11 1
  19    9   35 1
  20    9   36 1
  21   10   12 1
  22   10   37 1
  23   10   38 1
  24   11   13 1
  25   11   39 1
  26   11   40 1
  27   12   13 1
  28   12   41 1
  29   12   42 1
  30   13   43 1
  31   13   44 1
  32   14   15 2
  33   14   16 1
  34   15   17 1
  35   16   17 1
  36   18   19 1
  37   18   47 1
  38   18   48 1
  39   19   20 ar
  40   19   21 ar
  41   20   23 ar
  42   20   49 1
  43   21   24 ar
  44   21   50 1
  45   22   23 ar
  46   22   24 ar
  47   22   25 1
  48   23   51 1
  49   24   52 1
  50   26   27 1
  51   26   53 1
  52   26   54 1
  53   27   28 ar
  54   27   29 ar
  55   28   30 ar
  56   28   56 1
  57   29   31 ar
  58   29   57 1
  59   30   32 ar
  60   30   58 1
  61   31   32 ar
  62   31   59 1
  63   33   60 1
  64   33   61 1
  65   33   62 1

#	End of record

#	Name: 15945488
#	Creating user name:	landrgr1
#	Creation time:	28. 01. 2015 13:52

#	Modifying user name:	landrgr1
#	Modification time:	28. 01. 2015 13:52

#	Program:	corina 3.48 0006  22.01.2010

@<TRIPOS>MOLECULE
15945488
  54   57    0    0    0
SMALL
NO_CHARGES


@<TRIPOS>ATOM
   1 S1            -0.1485     2.0817     0.0330 S.3     
   2 O2            -2.1906    -0.0125     2.6049 O.2     
   3 N3            -0.8511    -0.5811     0.4229 N.pl3   
   4 N4             1.3024    -0.1834     0.5335 N.2     
   5 N5            -4.2166     0.1925     1.7243 N.am    
   6 N6             0.2140    -4.0535     1.0970 N.ar    
   7 C7            -0.2274    -1.7901     0.6771 C.ar    
   8 C8            -2.2916    -0.3608     0.2728 C.3     
   9 C9             0.1268     0.3693     0.3439 C.2     
  10 C10            1.1524    -1.5118     0.7377 C.ar    
  11 C11           -2.8947    -0.0479     1.6180 C.2     
  12 C12           -0.6586    -3.0910     0.8648 C.ar    
  13 C13           -4.7955     0.3739     2.9852 C.ar    
  14 C14            1.5571     2.6865     0.0725 C.3     
  15 C15            2.0303    -2.5738     0.9852 C.ar    
  16 C16            1.5689     4.1727    -0.1766 C.ar    
  17 C17           -5.8681     1.2423     3.1400 C.ar    
  18 C18           -4.3024    -0.3186     4.0833 C.ar    
  19 C19           -6.4372     1.4191     4.3860 C.ar    
  20 C20           -4.8760    -0.1374     5.3266 C.ar    
  21 C21           -5.9402     0.7325     5.4785 C.ar    
  22 C22            1.5163    -3.8295     1.1468 C.ar    
  23 C23            1.4769     5.0523     0.8858 C.ar    
  24 C24            1.6774     4.6564    -1.4670 C.ar    
  25 C25            1.5910     6.8993    -0.6335 C.ar    
  26 C26            1.4878     6.4156     0.6573 C.ar    
  27 C27            1.6883     6.0197    -1.6955 C.ar    
  28 C28           -7.6008     2.3617     4.5550 C.3     
  29 C29           -4.3419    -0.8887     6.5187 C.3     
  30 C30            1.6023     8.3855    -0.8826 C.3     
  31 H31           -2.4625     0.4753    -0.4053 H       
  32 H32           -2.7562    -1.2591    -0.1336 H       
  33 H33           -1.7132    -3.3200     0.8209 H       
  34 H34            1.9939     2.4783     1.0491 H       
  35 H35            2.1387     2.1839    -0.7003 H       
  36 H36           -4.7666     0.2399     0.9267 H       
  37 H37            3.0950    -2.4036     1.0470 H       
  38 H38           -6.2565     1.7792     2.2872 H       
  39 H39           -3.4715    -0.9983     3.9652 H       
  40 H40           -6.3871     0.8724     6.4517 H       
  41 H41            2.1870    -4.6536     1.3403 H       
  42 H42            1.3963     4.6744     1.8943 H       
  43 H43            1.7541     3.9692    -2.2966 H       
  44 H44            1.4152     7.1028     1.4873 H       
  45 H45            1.7734     6.3976    -2.7036 H       
  46 H46           -8.5337     1.8176     4.4072 H       
  47 H47           -7.5824     2.7852     5.5592 H       
  48 H48           -7.5281     3.1641     3.8209 H       
  49 H49           -3.5576    -0.3017     6.9966 H       
  50 H50           -5.1494    -1.0634     7.2297 H       
  51 H51           -3.9323    -1.8446     6.1920 H       
  52 H52            2.6292     8.7502    -0.8584 H       
  53 H53            1.1659     8.5935    -1.8595 H       
  54 H54            1.0201     8.8879    -0.1101 H       
@<TRIPOS>BOND
   1    1    9 1
   2    1   14 1
   3    2   11 2
   4    3    7 1
   5    3    8 1
   6    3    9 1
   7    4    9 2
   8    4   10 1
   9    5   11 am
  10    5   13 1
  11    5   36 1
  12    6   12 ar
  13    6   22 ar
  14    7   10 ar
  15    7   12 ar
  16    8   11 1
  17    8   31 1
  18    8   32 1
  19   10   15 ar
  20   12   33 1
  21   13   17 ar
  22   13   18 ar
  23   14   16 1
  24   14   34 1
  25   14   35 1
  26   15   22 ar
  27   15   37 1
  28   16   23 ar
  29   16   24 ar
  30   17   19 ar
  31   17   38 1
  32   18   20 ar
  33   18   39 1
  34   19   21 ar
  35   19   28 1
  36   20   21 ar
  37   20   29 1
  38   21   40 1
  39   22   41 1
  40   23   26 ar
  41   23   42 1
  42   24   27 ar
  43   24   43 1
  44   25   26 ar
  45   25   27 ar
  46   25   30 1
  47   26   44 1
  48   27   45 1
  49   28   46 1
  50   28   47 1
  51   28   48 1
  52   29   49 1
  53   29   50 1
  54   29   51 1
  55   30   52 1
  56   30   53 1
  57   30   54 1

#	End of record

#	Name: 15945477
#	Creating user name:	landrgr1
#	Creation time:	28. 01. 2015 13:52

#	Modifying user name:	landrgr1
#	Modification time:	28. 01. 2015 13:52

#	Program:	corina 3.48 0006  22.01.2010

@<TRIPOS>MOLECULE
15945477
  54   57    0    0    0
SMALL
NO_CHARGES


@<TRIPOS>ATOM
   1 S1            -0.0225     1.8097     0.0120 S.3     
   2 F2             8.9476    -0.2849    -0.0842 F       
   3 O3            -2.3441     0.2498     0.0258 O.2     
   4 O4            -0.6716     8.3147     0.0594 O.3     
   5 N5            -1.6400    -1.8540     0.0078 N.am    
   6 N6             3.5861     3.3652    -0.0131 N.pl3   
   7 N7             2.7105     1.3662    -0.0169 N.2     
   8 C8            -3.0144    -2.3611     0.0182 C.3     
   9 C9            -3.0613    -3.7694    -0.6000 C.3     
  10 C10           -3.5153    -2.5003     1.4706 C.3     
  11 C11           -3.5891    -4.7154     0.4984 C.3     
  12 C12           -4.3791    -3.7859     1.4528 C.3     
  13 C13           -1.4117    -0.5257     0.0127 C.2     
  14 C14            0.0021    -0.0041     0.0020 C.3     
  15 C15            1.6887     2.2294    -0.0021 C.2     
  16 C16            2.2112     3.5064     0.0007 C.2     
  17 C17            3.8489     2.0266    -0.0237 C.2     
  18 C18            1.4524     4.7722     0.0163 C.ar    
  19 C19            5.1945     1.4166    -0.0400 C.ar    
  20 C20            1.8169     5.8182    -0.8353 C.ar    
  21 C21            0.3638     4.9261     0.8785 C.ar    
  22 C22            5.3339     0.0272    -0.0498 C.ar    
  23 C23            6.3313     2.2273    -0.0516 C.ar    
  24 C24            1.1048     6.9986    -0.8175 C.ar    
  25 C25           -0.3422     6.1102     0.8891 C.ar    
  26 C26            0.0273     7.1489     0.0451 C.ar    
  27 C27            6.5922    -0.5367    -0.0650 C.ar    
  28 C28            7.5846     1.6526    -0.0668 C.ar    
  29 C29            7.7172     0.2729    -0.0702 C.ar    
  30 C30           -1.7686     8.4024     0.9710 C.3     
  31 H31           -3.6650    -1.6869    -0.5389 H       
  32 H32           -3.7354    -3.7790    -1.4565 H       
  33 H33           -2.0615    -4.0756    -0.9077 H       
  34 H34           -2.6745    -2.6151     2.1547 H       
  35 H35           -4.1205    -1.6379     1.7497 H       
  36 H36           -4.2482    -5.4694     0.0681 H       
  37 H37           -2.7602    -5.1879     1.0256 H       
  38 H38           -4.4442    -4.2213     2.4500 H       
  39 H39           -5.3725    -3.5783     1.0552 H       
  40 H40           -0.8943    -2.4742    -0.0027 H       
  41 H41            0.5123    -0.3556    -0.8948 H       
  42 H42            0.5293    -0.3651     0.8851 H       
  43 H43            4.2398     4.0818    -0.0184 H       
  44 H44            2.6553     5.7024    -1.5061 H       
  45 H45            0.0757     4.1187     1.5353 H       
  46 H46            4.4580    -0.6045    -0.0450 H       
  47 H47            6.2291     3.3024    -0.0490 H       
  48 H48            1.3858     7.8077    -1.4754 H       
  49 H49           -1.1840     6.2300     1.5550 H       
  50 H50            6.7013    -1.6111    -0.0725 H       
  51 H51            8.4646     2.2787    -0.0757 H       
  52 H52           -2.4978     7.6266     0.7377 H       
  53 H53           -1.4061     8.2657     1.9899 H       
  54 H54           -2.2385     9.3817     0.8809 H       
@<TRIPOS>BOND
   1    1   14 1
   2    1   15 1
   3    2   29 1
   4    3   13 2
   5    4   26 1
   6    4   30 1
   7    5    8 1
   8    5   13 am
   9    5   40 1
  10    6   16 1
  11    6   17 1
  12    6   43 1
  13    7   15 1
  14    7   17 2
  15    8    9 1
  16    8   10 1
  17    8   31 1
  18    9   11 1
  19    9   32 1
  20    9   33 1
  21   10   12 1
  22   10   34 1
  23   10   35 1
  24   11   12 1
  25   11   36 1
  26   11   37 1
  27   12   38 1
  28   12   39 1
  29   13   14 1
  30   14   41 1
  31   14   42 1
  32   15   16 2
  33   16   18 1
  34   17   19 1
  35   18   20 ar
  36   18   21 ar
  37   19   22 ar
  38   19   23 ar
  39   20   24 ar
  40   20   44 1
  41   21   25 ar
  42   21   45 1
  43   22   27 ar
  44   22   46 1
  45   23   28 ar
  46   23   47 1
  47   24   26 ar
  48   24   48 1
  49   25   26 ar
  50   25   49 1
  51   27   29 ar
  52   27   50 1
  53   28   29 ar
  54   28   51 1
  55   30   52 1
  56   30   53 1
  57   30   54 1

#	End of record

#	Name: 15945458
#	Creating user name:	landrgr1
#	Creation time:	28. 01. 2015 13:52

#	Modifying user name:	landrgr1
#	Modification time:	28. 01. 2015 13:52

#	Program:	corina 3.48 0006  22.01.2010

@<TRIPOS>MOLECULE
15945458
  50   50    0    0    0
SMALL
NO_CHARGES


@<TRIPOS>ATOM
   1 Cl1            0.0000     0.0000     0.0000 Cl      
   2 H2             0.0000     1.3700     0.0000 H       
   3 N3             7.9740    14.4579     7.0496 N.3     
   4 N4            10.1192    10.9619     9.7098 N.2     
   5 C5             8.9584    12.7140     8.4592 C.3     
   6 C6             8.2229    13.0137     7.1515 C.3     
   7 C7             9.3137    11.2269     8.5151 C.3     
   8 C8             9.6733    10.1552    10.6301 C.2     
   9 C9             8.3746     9.4671    10.4459 C.ar    
  10 C10           10.4650     9.9258    11.8608 C.ar    
  11 C11            8.3304     8.0793    10.3102 C.ar    
  12 C12            9.9757    10.3480    13.0971 C.ar    
  13 C13            7.1906    10.2033    10.4132 C.ar    
  14 C14           11.7000     9.2819    11.7890 C.ar    
  15 C15            9.2344    15.2014     6.9200 C.3     
  16 C16            7.0683    14.7585     5.9328 C.3     
  17 C17            7.1177     7.4442    10.1389 C.ar    
  18 C18           10.7177    10.1316    14.2398 C.ar    
  19 C19            9.6046     7.2757    10.3501 C.3     
  20 C20            8.6395    11.0394    13.1842 C.3     
  21 C21            5.9838     9.5565    10.2413 C.ar    
  22 C22           12.4329     9.0712    12.9392 C.ar    
  23 C23            5.9469     8.1808    10.1015 C.ar    
  24 C24           11.9450     9.4972    14.1614 C.ar    
  25 H25            9.8713    13.3077     8.5069 H       
  26 H26            8.3164    12.9662     9.3032 H       
  27 H27            7.2728    12.4795     7.1383 H       
  28 H28            8.8335    12.6899     6.3087 H       
  29 H29            9.8826    10.9555     7.6258 H       
  30 H30            8.3987    10.6360     8.5555 H       
  31 H31            7.2181    11.2774    10.5226 H       
  32 H32           12.0819     8.9486    10.8354 H       
  33 H33            9.7593    14.8730     6.0230 H       
  34 H34            9.0212    16.2678     6.8464 H       
  35 H35            9.8577    15.0150     7.7945 H       
  36 H36            6.1169    14.2502     6.0896 H       
  37 H37            6.9010    15.8343     5.8801 H       
  38 H38            7.5148    14.4141     5.0000 H       
  39 H39            7.0822     6.3700    10.0333 H       
  40 H40           10.3401    10.4582    15.1975 H       
  41 H41            9.7799     6.9228    11.3663 H       
  42 H42            9.5166     6.4215     9.6789 H       
  43 H43           10.4390     7.9018    10.0339 H       
  44 H44            7.8643    10.3055    13.4044 H       
  45 H45            8.6681    11.7867    13.9771 H       
  46 H46            8.4197    11.5261    12.2339 H       
  47 H47            5.0662    10.1255    10.2162 H       
  48 H48           13.3893     8.5724    12.8849 H       
  49 H49            5.0000     7.6791     9.9672 H       
  50 H50           12.5222     9.3301    15.0588 H       
@<TRIPOS>BOND
   1    1    2 1
   2    3    6 1
   3    3   15 1
   4    3   16 1
   5    4    7 1
   6    4    8 2
   7    5    6 1
   8    5    7 1
   9    5   25 1
  10    5   26 1
  11    6   27 1
  12    6   28 1
  13    7   29 1
  14    7   30 1
  15    8    9 1
  16    8   10 1
  17    9   11 ar
  18    9   13 ar
  19   10   12 ar
  20   10   14 ar
  21   11   17 ar
  22   11   19 1
  23   12   18 ar
  24   12   20 1
  25   13   21 ar
  26   13   31 1
  27   14   22 ar
  28   14   32 1
  29   15   33 1
  30   15   34 1
  31   15   35 1
  32   16   36 1
  33   16   37 1
  34   16   38 1
  35   17   23 ar
  36   17   39 1
  37   18   24 ar
  38   18   40 1
  39   19   41 1
  40   19   42 1
  41   19   43 1
  42   20   44 1
  43   20   45 1
  44   20   46 1
  45   21   23 ar
  46   21   47 1
  47   22   24 ar
  48   22   48 1
  49   23   49 1
  50   24   50 1

#	End of record

#	Name: 15945337
#	Creating user name:	landrgr1
#	Creation time:	28. 01. 2015 13:52

#	Modifying user name:	landrgr1
#	Modification time:	28. 01. 2015 13:52

#	Program:	corina 3.48 0006  22.01.2010

@<TRIPOS>MOLECULE
15945337
  57   59    0    0    0
SMALL
NO_CHARGES


@<TRIPOS>ATOM
   1 O1            -0.0164     1.3548     0.0095 O.3     
   2 O2             0.3366     8.3104     1.0962 O.2     
   3 O3            -0.5856    14.5371     0.1528 O.3     
   4 O4            -0.7877    15.7801    -2.2429 O.2     
   5 N5             0.3067     8.3878    -1.1231 N.am    
   6 N6             0.1033     9.7740    -1.1137 N.pl3   
   7 C7            -2.5051     0.0187     0.0265 C.3     
   8 C8            -1.1889    -0.7151     0.0096 C.ar    
   9 C9             0.0021    -0.0041     0.0020 C.ar    
  10 C10           -3.3139    -0.3559    -1.2170 C.3     
  11 C11           -3.2896    -0.3701     1.2813 C.3     
  12 C12           -1.1675    -2.0965     0.0068 C.ar    
  13 C13            1.2123    -0.6826    -0.0136 C.ar    
  14 C14            1.2283    -2.0637    -0.0217 C.ar    
  15 C15            0.0396    -2.7702    -0.0083 C.ar    
  16 C16            1.2479     2.0208     0.0010 C.3     
  17 C17            1.0302     3.5120     0.0111 C.ar    
  18 C18            2.5424    -2.8012    -0.0387 C.3     
  19 C19            0.9422     4.1870     1.2156 C.ar    
  20 C20            0.9249     4.2007    -1.1843 C.ar    
  21 C21            0.6298     6.2520     0.0296 C.ar    
  22 C22            0.7425     5.5520     1.2319 C.ar    
  23 C23            0.7261     5.5659    -1.1821 C.ar    
  24 C24            0.4152     7.7148     0.0395 C.2     
  25 C25           -0.2077    11.8282    -2.2618 C.2     
  26 C26           -0.0047    10.4440    -2.2711 C.2     
  27 C27           -0.2993    12.5218    -1.0334 C.2     
  28 C28           -0.3157    12.5350    -3.4791 C.2     
  29 C29           -0.4967    13.8671    -1.0280 C.2     
  30 C30           -0.5129    13.8785    -3.4695 C.2     
  31 C31           -0.6099    14.5686    -2.2482 C.2     
  32 H32           -2.3221     1.0932     0.0308 H       
  33 H33           -3.4970    -1.4304    -1.2214 H       
  34 H34           -4.2659     0.1748    -1.2048 H       
  35 H35           -2.7550    -0.0790    -2.1110 H       
  36 H36           -2.7134    -0.1032     2.1672 H       
  37 H37           -4.2416     0.1606     1.2935 H       
  38 H38           -3.4727    -1.4446     1.2770 H       
  39 H39           -2.0945    -2.6506     0.0168 H       
  40 H40            2.1410    -0.1312    -0.0199 H       
  41 H41            0.0543    -3.8501    -0.0101 H       
  42 H42            1.8173     1.7308     0.8840 H       
  43 H43            1.8003     1.7403    -0.8958 H       
  44 H44            2.8692    -2.9849     0.9848 H       
  45 H45            2.4186    -3.7522    -0.5568 H       
  46 H46            3.2898    -2.2001    -0.5564 H       
  47 H47            1.0296     3.6442     2.1452 H       
  48 H48            0.9989     3.6685    -2.1211 H       
  49 H49            0.6733     6.0776     2.1728 H       
  50 H50            0.6440     6.1024    -2.1158 H       
  51 H51            0.3694     7.9125    -1.9663 H       
  52 H52            0.0406    10.2493    -0.2705 H       
  53 H53            0.0652     9.9148    -3.2100 H       
  54 H54           -0.2129    11.9840    -0.1008 H       
  55 H55           -0.2412    12.0070    -4.4183 H       
  56 H56           -0.5949    14.4180    -4.4015 H       
  57 H57           -0.7261    15.4889     0.0554 H       
@<TRIPOS>BOND
   1    1    9 1
   2    1   16 1
   3    2   24 2
   4    3   29 1
   5    3   57 1
   6    4   31 2
   7    5    6 1
   8    5   24 am
   9    5   51 1
  10    6   26 1
  11    6   52 1
  12    7    8 1
  13    7   10 1
  14    7   11 1
  15    7   32 1
  16    8    9 ar
  17    8   12 ar
  18    9   13 ar
  19   10   33 1
  20   10   34 1
  21   10   35 1
  22   11   36 1
  23   11   37 1
  24   11   38 1
  25   12   15 ar
  26   12   39 1
  27   13   14 ar
  28   13   40 1
  29   14   15 ar
  30   14   18 1
  31   15   41 1
  32   16   17 1
  33   16   42 1
  34   16   43 1
  35   17   19 ar
  36   17   20 ar
  37   18   44 1
  38   18   45 1
  39   18   46 1
  40   19   22 ar
  41   19   47 1
  42   20   23 ar
  43   20   48 1
  44   21   22 ar
  45   21   23 ar
  46   21   24 1
  47   22   49 1
  48   23   50 1
  49   25   26 2
  50   25   27 1
  51   25   28 1
  52   26   53 1
  53   27   29 2
  54   27   54 1
  55   28   30 2
  56   28   55 1
  57   29   31 1
  58   30   31 1
  59   30   56 1

#	End of record

#	Name: 15945307
#	Creating user name:	landrgr1
#	Creation time:	28. 01. 2015 13:52

#	Modifying user name:	landrgr1
#	Modification time:	28. 01. 2015 13:52

#	Program:	corina 3.48 0006  22.01.2010

@<TRIPOS>MOLECULE
15945307
  32   34    0    0    0
SMALL
NO_CHARGES


@<TRIPOS>ATOM
   1 Cl1            3.0145     3.2540     1.6785 Cl      
   2 Cl2           -3.6319    -1.9242    -0.8742 Cl      
   3 Cl3            3.5737     7.3357     3.1578 Cl      
   4 O4             2.9635    -0.7460    -1.2014 O.2     
   5 O5            -1.5316     4.7037     3.2413 O.2     
   6 N6            -0.0390     1.7048    -0.3859 N.pl3   
   7 N7             2.2699     1.2051    -0.3536 N.am    
   8 C8            -0.3836     0.3767    -0.6134 C.ar    
   9 C9             0.6577    -0.5449    -0.8347 C.ar    
  10 C10            1.2163     1.9519     0.1063 C.2     
  11 C11            2.0453    -0.0489    -0.8145 C.2     
  12 C12           -1.6994    -0.0505    -0.6264 C.ar    
  13 C13            0.3587    -1.8857    -1.0655 C.ar    
  14 C14            1.4193     2.9519     1.0638 C.2     
  15 C15           -1.9820    -1.3845    -0.8570 C.ar    
  16 C16           -0.9576    -2.2957    -1.0753 C.ar    
  17 C17            0.3637     3.6894     1.5142 C.2     
  18 C18            0.5872     4.8005     2.3626 C.2     
  19 C19            1.8259     5.4596     2.3554 C.2     
  20 C20           -0.4405     5.2620     3.2237 C.2     
  21 C21            2.0361     6.5300     3.1757 C.2     
  22 C22           -0.1950     6.3636     4.0541 C.2     
  23 C23            1.0326     6.9825     4.0263 C.2     
  24 H24           -0.6598     2.4266    -0.5717 H       
  25 H25            3.1681     1.5714    -0.3494 H       
  26 H26           -2.5009     0.6533    -0.4572 H       
  27 H27            1.1519    -2.5986    -1.2358 H       
  28 H28           -1.1938    -3.3342    -1.2543 H       
  29 H29           -0.6424     3.4256     1.2236 H       
  30 H30            2.6141     5.1193     1.7002 H       
  31 H31           -0.9686     6.7261     4.7148 H       
  32 H32            1.2182     7.8309     4.6683 H       
@<TRIPOS>BOND
   1    1   14 1
   2    2   15 1
   3    3   21 1
   4    4   11 2
   5    5   20 2
   6    6    8 1
   7    6   10 1
   8    6   24 1
   9    7   10 1
  10    7   11 am
  11    7   25 1
  12    8    9 ar
  13    8   12 ar
  14    9   11 1
  15    9   13 ar
  16   10   14 2
  17   12   15 ar
  18   12   26 1
  19   13   16 ar
  20   13   27 1
  21   14   17 1
  22   15   16 ar
  23   16   28 1
  24   17   18 2
  25   17   29 1
  26   18   19 1
  27   18   20 1
  28   19   21 2
  29   19   30 1
  30   20   22 1
  31   21   23 1
  32   22   23 2
  33   22   31 1
  34   23   32 1

#	End of record

#	Name: 15945301
#	Creating user name:	landrgr1
#	Creation time:	28. 01. 2015 13:52

#	Modifying user name:	landrgr1
#	Modification time:	28. 01. 2015 13:52

#	Program:	corina 3.48 0006  22.01.2010

@<TRIPOS>MOLECULE
15945301
  45   46    0    0    0
SMALL
NO_CHARGES


@<TRIPOS>ATOM
   1 S1            -0.0276     1.7650     0.0445 S.3     
   2 O2            -2.3101    -2.5779     0.5632 O.2     
   3 O3             1.0500     4.3219    -0.2946 O.2     
   4 N4            -1.2125    -0.6369     0.3448 N.am    
   5 N5             1.1272    -0.5600     0.5766 N.2     
   6 N6             4.7681     5.9481    -0.2066 N.pl3   
   7 N7             5.3003     2.5058     0.2293 N.1     
   8 C8            -2.4539     0.0961     0.0843 C.3     
   9 C9            -3.0384     0.5958     1.4070 C.3     
  10 C10           -4.3348     1.3613     1.1348 C.3     
  11 C11           -1.2553    -1.9703     0.5709 C.2     
  12 C12           -0.0209     0.0301     0.3521 C.2     
  13 C13            0.0178    -2.6579     0.8266 C.ar    
  14 C14            1.2043    -1.8893     0.8205 C.ar    
  15 C15           -4.9193     1.8610     2.4576 C.3     
  16 C16            0.0766    -4.0291     1.0696 C.ar    
  17 C17            2.4288    -2.5188     1.0606 C.ar    
  18 C18            1.2959    -4.6259     1.3033 C.ar    
  19 C19            2.4630    -3.8728     1.3049 C.ar    
  20 C20            1.7443     2.1132     0.1690 C.3     
  21 C21            1.9853     3.5822    -0.0655 C.2     
  22 C22            3.3023     4.0998    -0.0187 C.2     
  23 C23            3.5127     5.4642    -0.1066 C.2     
  24 C24            2.3397     6.4102    -0.0905 C.3     
  25 C25            4.4164     3.2109     0.1196 C.1     
  26 H26           -2.2444     0.9465    -0.5647 H       
  27 H27           -3.1707    -0.5649    -0.4030 H       
  28 H28           -3.2479    -0.2545     2.0559 H       
  29 H29           -2.3216     1.2568     1.8943 H       
  30 H30           -4.1253     2.2117     0.4859 H       
  31 H31           -5.0516     0.7004     0.6476 H       
  32 H32           -5.1288     1.0107     3.1065 H       
  33 H33           -4.2025     2.5220     2.9448 H       
  34 H34           -5.8429     2.4064     2.2637 H       
  35 H35           -0.8277    -4.6195     1.0750 H       
  36 H36            3.3441    -1.9455     1.0541 H       
  37 H37            1.3443    -5.6882     1.4919 H       
  38 H38            3.4102    -4.3575     1.4898 H       
  39 H39            2.0990     1.8409     1.1631 H       
  40 H40            2.2822     1.5325    -0.5804 H       
  41 H41            1.9353     6.5047    -1.0983 H       
  42 H42            1.5689     6.0219     0.5753 H       
  43 H43            2.6663     7.3881     0.2632 H       
  44 H44            5.5231     5.3392    -0.2170 H       
  45 H45            4.9157     6.9048    -0.2683 H       
@<TRIPOS>BOND
   1    1   12 1
   2    1   20 1
   3    2   11 2
   4    3   21 2
   5    4    8 1
   6    4   11 am
   7    4   12 1
   8    5   12 2
   9    5   14 1
  10    6   23 1
  11    6   44 1
  12    6   45 1
  13    7   25 3
  14    8    9 1
  15    8   26 1
  16    8   27 1
  17    9   10 1
  18    9   28 1
  19    9   29 1
  20   10   15 1
  21   10   30 1
  22   10   31 1
  23   11   13 1
  24   13   14 ar
  25   13   16 ar
  26   14   17 ar
  27   15   32 1
  28   15   33 1
  29   15   34 1
  30   16   18 ar
  31   16   35 1
  32   17   19 ar
  33   17   36 1
  34   18   19 ar
  35   18   37 1
  36   19   38 1
  37   20   21 1
  38   20   39 1
  39   20   40 1
  40   21   22 1
  41   22   23 2
  42   22   25 1
  43   23   24 1
  44   24   41 1
  45   24   42 1
  46   24   43 1

#	End of record

#	Name: 15945295
#	Creating user name:	landrgr1
#	Creation time:	28. 01. 2015 13:52

#	Modifying user name:	landrgr1
#	Modification time:	28. 01. 2015 13:52

#	Program:	corina 3.48 0006  22.01.2010

@<TRIPOS>MOLECULE
15945295
  43   44    0    0    0
SMALL
NO_CHARGES


@<TRIPOS>ATOM
   1 S1            -0.0276     1.7650     0.0445 S.3     
   2 O2            -2.3100    -2.5780     0.5625 O.2     
   3 O3            -4.8803     1.8275     2.3717 O.3     
   4 O4             1.0500     4.3219    -0.2946 O.2     
   5 N5            -1.2125    -0.6369     0.3448 N.am    
   6 N6             1.1272    -0.5600     0.5766 N.2     
   7 N7             4.7681     5.9481    -0.2066 N.pl3   
   8 N8             5.3003     2.5058     0.2293 N.1     
   9 C9            -2.4539     0.0962     0.0847 C.3     
  10 C10           -3.0381     0.5955     1.4077 C.3     
  11 C11           -1.2553    -1.9703     0.5705 C.2     
  12 C12            0.0179    -2.6580     0.8262 C.ar    
  13 C13           -0.0209     0.0301     0.3521 C.2     
  14 C14            1.2043    -1.8893     0.8206 C.ar    
  15 C15           -4.3346     1.3611     1.1361 C.3     
  16 C16            0.0766    -4.0292     1.0689 C.ar    
  17 C17            2.4288    -2.5188     1.0606 C.ar    
  18 C18            1.2959    -4.6260     1.3026 C.ar    
  19 C19            2.4629    -3.8728     1.3050 C.ar    
  20 C20            1.7443     2.1132     0.1690 C.3     
  21 C21            1.9853     3.5822    -0.0655 C.2     
  22 C22            3.3023     4.0998    -0.0187 C.2     
  23 C23            3.5127     5.4642    -0.1066 C.2     
  24 C24            2.3397     6.4102    -0.0905 C.3     
  25 C25            4.4164     3.2109     0.1196 C.1     
  26 H26           -2.2445     0.9467    -0.5640 H       
  27 H27           -3.1708    -0.5646    -0.4026 H       
  28 H28           -3.2475    -0.2550     2.0565 H       
  29 H29           -2.3212     1.2564     1.8951 H       
  30 H30           -5.0515     0.7003     0.6488 H       
  31 H31           -4.1252     2.2117     0.4874 H       
  32 H32           -0.8276    -4.6197     1.0739 H       
  33 H33            3.3441    -1.9455     1.0541 H       
  34 H34            1.3443    -5.6883     1.4913 H       
  35 H35            3.4101    -4.3575     1.4903 H       
  36 H36            2.0990     1.8409     1.1631 H       
  37 H37            2.2822     1.5325    -0.5804 H       
  38 H38           -5.7052     2.3228     2.2754 H       
  39 H39            1.9353     6.5047    -1.0983 H       
  40 H40            1.5689     6.0219     0.5753 H       
  41 H41            2.6663     7.3881     0.2632 H       
  42 H42            5.5231     5.3392    -0.2170 H       
  43 H43            4.9157     6.9048    -0.2683 H       
@<TRIPOS>BOND
   1    1   13 1
   2    1   20 1
   3    2   11 2
   4    3   15 1
   5    3   38 1
   6    4   21 2
   7    5    9 1
   8    5   11 am
   9    5   13 1
  10    6   13 2
  11    6   14 1
  12    7   23 1
  13    7   42 1
  14    7   43 1
  15    8   25 3
  16    9   10 1
  17    9   26 1
  18    9   27 1
  19   10   15 1
  20   10   28 1
  21   10   29 1
  22   11   12 1
  23   12   14 ar
  24   12   16 ar
  25   14   17 ar
  26   15   30 1
  27   15   31 1
  28   16   18 ar
  29   16   32 1
  30   17   19 ar
  31   17   33 1
  32   18   19 ar
  33   18   34 1
  34   19   35 1
  35   20   21 1
  36   20   36 1
  37   20   37 1
  38   21   22 1
  39   22   23 2
  40   22   25 1
  41   23   24 1
  42   24   39 1
  43   24   40 1
  44   24   41 1

#	End of record

#	Name: 15945278
#	Creating user name:	landrgr1
#	Creation time:	28. 01. 2015 13:52

#	Modifying user name:	landrgr1
#	Modification time:	28. 01. 2015 13:52

#	Program:	corina 3.48 0006  22.01.2010

@<TRIPOS>MOLECULE
15945278
  42   45    0    0    0
SMALL
NO_CHARGES


@<TRIPOS>ATOM
   1 Cl1            6.3873     1.9524    -0.3898 Cl      
   2 S2            -0.0927     1.7793     0.0706 S.3     
   3 O3            -0.5629    -1.4280    -1.5485 O.3     
   4 O4             1.5217    -0.5516    -1.4698 O.2     
   5 N5             2.2455     3.3074    -0.0811 N.pl3   
   6 N6             2.5956     1.1895     0.1388 N.2     
   7 N7             3.7462     1.7588     0.0800 N.2     
   8 C8            -0.0879    -0.0211     0.2564 C.3     
   9 C9            -1.5297    -0.5472     0.4340 C.3     
  10 C10           -1.5571    -1.7533    -0.5323 C.3     
  11 C11            1.5897     4.6103    -0.2181 C.3     
  12 C12            1.6418     2.0886     0.0431 C.2     
  13 C13            0.4114    -0.6801    -1.0110 C.2     
  14 C14            3.5979     3.0559    -0.0568 C.2     
  15 C15            1.2288     5.1370     1.1469 C.ar    
  16 C16            4.6799     4.0574    -0.1644 C.ar    
  17 C17            2.0629     6.0372     1.7832 C.ar    
  18 C18            0.0608     4.7243     1.7604 C.ar    
  19 C19            6.0052     3.6445    -0.3215 C.ar    
  20 C20            4.3814     5.4197    -0.1154 C.ar    
  21 C21            1.7319     6.5203     3.0353 C.ar    
  22 C22           -0.2703     5.2074     3.0126 C.ar    
  23 C23            7.0104     4.5856    -0.4218 C.ar    
  24 C24            5.3959     6.3495    -0.2169 C.ar    
  25 C25            0.5665     6.1036     3.6511 C.ar    
  26 C26            6.7071     5.9344    -0.3666 C.ar    
  27 H27            0.5295    -0.3125     1.1061 H       
  28 H28           -1.7020    -0.8686     1.4611 H       
  29 H29           -2.2577     0.2068     0.1346 H       
  30 H30           -2.5436    -1.8567    -0.9842 H       
  31 H31           -1.2800    -2.6677    -0.0077 H       
  32 H32            2.2675     5.3083    -0.7094 H       
  33 H33            0.6850     4.5005    -0.8161 H       
  34 H34            2.9734     6.3628     1.3021 H       
  35 H35           -0.5932     4.0246     1.2613 H       
  36 H36            3.3584     5.7456     0.0014 H       
  37 H37            2.3839     7.2231     3.5327 H       
  38 H38           -1.1830     4.8852     3.4917 H       
  39 H39            8.0356     4.2683    -0.5433 H       
  40 H40            5.1657     7.4040    -0.1794 H       
  41 H41            0.3080     6.4808     4.6295 H       
  42 H42            7.4971     6.6666    -0.4448 H       
@<TRIPOS>BOND
   1    1   19 1
   2    2    8 1
   3    2   12 1
   4    3   10 1
   5    3   13 1
   6    4   13 2
   7    5   11 1
   8    5   12 1
   9    5   14 1
  10    6    7 1
  11    6   12 2
  12    7   14 2
  13    8    9 1
  14    8   13 1
  15    8   27 1
  16    9   10 1
  17    9   28 1
  18    9   29 1
  19   10   30 1
  20   10   31 1
  21   11   15 1
  22   11   32 1
  23   11   33 1
  24   14   16 1
  25   15   17 ar
  26   15   18 ar
  27   16   19 ar
  28   16   20 ar
  29   17   21 ar
  30   17   34 1
  31   18   22 ar
  32   18   35 1
  33   19   23 ar
  34   20   24 ar
  35   20   36 1
  36   21   25 ar
  37   21   37 1
  38   22   25 ar
  39   22   38 1
  40   23   26 ar
  41   23   39 1
  42   24   26 ar
  43   24   40 1
  44   25   41 1
  45   26   42 1

#	End of record

#	Name: 15945236
#	Creating user name:	landrgr1
#	Creation time:	28. 01. 2015 13:52

#	Modifying user name:	landrgr1
#	Modification time:	28. 01. 2015 13:52

#	Program:	corina 3.48 0006  22.01.2010

@<TRIPOS>MOLECULE
15945236
  54   57    0    0    0
SMALL
NO_CHARGES


@<TRIPOS>ATOM
   1 O1            -2.5686     1.7525    -0.2250 O.2     
   2 N2            -0.3946     1.3152    -0.1572 N.am    
   3 N3            -2.4447     4.2746     0.5766 N.3     
   4 C4             0.9853     1.8197    -0.1400 C.3     
   5 C5             1.7735     1.0649    -1.2185 C.3     
   6 C6             1.8126    -0.4190    -0.8543 C.3     
   7 C7            -0.6089    -0.0679    -0.2351 C.ar    
   8 C8             0.4246    -0.9290    -0.5691 C.ar    
   9 C9            -1.1952     3.6365     0.1412 C.3     
  10 C10           -1.4366     2.1676    -0.0935 C.2     
  11 C11           -2.1716     5.4868     1.3601 C.3     
  12 C12           -1.8774    -0.5720     0.0268 C.ar    
  13 C13           -0.7151     4.2883    -1.1571 C.3     
  14 C14            0.1827    -2.2903    -0.6433 C.ar    
  15 C15           -1.9760     6.6543     0.4276 C.ar    
  16 C16           -3.3351     5.7654     2.2766 C.ar    
  17 C17           -2.1100    -1.9310    -0.0480 C.ar    
  18 C18           -1.0793    -2.7892    -0.3840 C.ar    
  19 C19           -0.9935     7.5909     0.6891 C.ar    
  20 C20           -3.1084     6.2075     3.5666 C.ar    
  21 C21           -2.7754     6.7857    -0.6925 C.ar    
  22 C22           -4.6291     5.5842     1.8254 C.ar    
  23 C23           -0.8141     8.6618    -0.1663 C.ar    
  24 C24           -4.1756     6.4629     4.4072 C.ar    
  25 C25           -2.5960     7.8566    -1.5480 C.ar    
  26 C26           -5.6963     5.8397     2.6660 C.ar    
  27 C27           -1.6170     8.7960    -1.2835 C.ar    
  28 C28           -5.4695     6.2767     3.9577 C.ar    
  29 H29            0.9908     2.8876    -0.3581 H       
  30 H30            1.4321     1.6395     0.8378 H       
  31 H31            1.2839     1.1911    -2.1841 H       
  32 H32            2.7899     1.4555    -1.2686 H       
  33 H33            2.2392    -0.9821    -1.6844 H       
  34 H34            2.4350    -0.5561     0.0300 H       
  35 H35           -0.4356     3.7612     0.9129 H       
  36 H36           -1.2689     5.3404     1.9532 H       
  37 H37           -3.0396     4.4803    -0.2120 H       
  38 H38           -2.6815     0.0995     0.2894 H       
  39 H39           -1.4219     4.0682    -1.9571 H       
  40 H40           -0.6477     5.3674    -1.0186 H       
  41 H41            0.2662     3.8938    -1.4204 H       
  42 H42            0.9841    -2.9652    -0.9054 H       
  43 H43           -3.0954    -2.3231     0.1560 H       
  44 H44           -1.2612    -3.8521    -0.4438 H       
  45 H45           -0.3662     7.4860     1.5620 H       
  46 H46           -2.0975     6.3529     3.9177 H       
  47 H47           -3.5399     6.0514    -0.8995 H       
  48 H48           -4.8063     5.2434     0.8160 H       
  49 H49           -0.0469     9.3939     0.0385 H       
  50 H50           -3.9985     6.8076     5.4153 H       
  51 H51           -3.2204     7.9591    -2.4233 H       
  52 H52           -6.7073     5.6985     2.3134 H       
  53 H53           -1.4771     9.6329    -1.9517 H       
  54 H54           -6.3033     6.4760     4.6146 H       
@<TRIPOS>BOND
   1    1   10 2
   2    2    4 1
   3    2    7 1
   4    2   10 am
   5    3    9 1
   6    3   11 1
   7    3   37 1
   8    4    5 1
   9    4   29 1
  10    4   30 1
  11    5    6 1
  12    5   31 1
  13    5   32 1
  14    6    8 1
  15    6   33 1
  16    6   34 1
  17    7    8 ar
  18    7   12 ar
  19    8   14 ar
  20    9   10 1
  21    9   13 1
  22    9   35 1
  23   11   15 1
  24   11   16 1
  25   11   36 1
  26   12   17 ar
  27   12   38 1
  28   13   39 1
  29   13   40 1
  30   13   41 1
  31   14   18 ar
  32   14   42 1
  33   15   19 ar
  34   15   21 ar
  35   16   20 ar
  36   16   22 ar
  37   17   18 ar
  38   17   43 1
  39   18   44 1
  40   19   23 ar
  41   19   45 1
  42   20   24 ar
  43   20   46 1
  44   21   25 ar
  45   21   47 1
  46   22   26 ar
  47   22   48 1
  48   23   27 ar
  49   23   49 1
  50   24   28 ar
  51   24   50 1
  52   25   27 ar
  53   25   51 1
  54   26   28 ar
  55   26   52 1
  56   27   53 1
  57   28   54 1

#	End of record

#	Name: 15945235
#	Creating user name:	landrgr1
#	Creation time:	28. 01. 2015 13:52

#	Modifying user name:	landrgr1
#	Modification time:	28. 01. 2015 13:52

#	Program:	corina 3.48 0006  22.01.2010

@<TRIPOS>MOLECULE
15945235
  54   54    0    0    0
SMALL
NO_CHARGES


@<TRIPOS>ATOM
   1 F1             0.8075     3.6680     0.1787 F       
   2 O2            -2.3004    -0.0337    -0.6644 O.2     
   3 N3             0.0976     0.8570    -1.2510 N.3     
   4 N4            -1.7297    -1.8462     0.4808 N.am    
   5 C5            -3.0667    -2.2361     0.6165 C.ar    
   6 C6             0.0253    -0.3815    -0.4644 C.3     
   7 C7            -3.4649    -3.5063     0.2200 C.ar    
   8 C8             1.4742     1.3669    -1.3048 C.3     
   9 C9            -3.9970    -1.3560     1.1531 C.ar    
  10 C10           -2.4571    -4.4670    -0.3566 C.3     
  11 C11           -1.4185    -0.7402    -0.2239 C.2     
  12 C12            1.4745     2.7506    -1.9018 C.ar    
  13 C13           -4.7850    -3.8880     0.3553 C.ar    
  14 C14           -0.4420     0.6547    -2.6023 C.3     
  15 C15           -5.3161    -1.7439     1.2858 C.ar    
  16 C16           -5.7104    -3.0070     0.8848 C.ar    
  17 C17           -3.5680     0.0208     1.5908 C.3     
  18 C18           -1.7471    -5.2046     0.7803 C.3     
  19 C19            1.1375     3.8425    -1.1197 C.ar    
  20 C20            1.8165     2.9309    -3.2284 C.ar    
  21 C21            1.1386     5.1131    -1.6694 C.ar    
  22 C22            1.8172     4.2003    -3.7763 C.ar    
  23 C23            1.4760     5.2904    -2.9980 C.ar    
  24 H24            0.5139    -1.1881    -1.0109 H       
  25 H25            0.5273    -0.2344     0.4919 H       
  26 H26            1.8868     1.4061    -0.2966 H       
  27 H27            2.0830     0.7052    -1.9210 H       
  28 H28           -2.9670    -5.1884    -0.9952 H       
  29 H29           -1.7243    -3.9150    -0.9452 H       
  30 H30           -1.0269    -2.3718     0.8938 H       
  31 H31           -5.0954    -4.8754     0.0468 H       
  32 H32           -1.4846     0.3442    -2.5344 H       
  33 H33           -0.3763     1.5871    -3.1631 H       
  34 H34            0.1346    -0.1172    -3.1119 H       
  35 H35           -6.0401    -1.0600     1.7034 H       
  36 H36           -6.7423    -3.3080     0.9896 H       
  37 H37           -3.7809     0.7371     0.7973 H       
  38 H38           -4.1143     0.3025     2.4909 H       
  39 H39           -2.4984     0.0184     1.8007 H       
  40 H40           -1.0182    -5.8995     0.3632 H       
  41 H41           -1.2372    -4.4832     1.4188 H       
  42 H42           -2.4799    -5.7566     1.3688 H       
  43 H43            2.0836     2.0799    -3.8374 H       
  44 H44            0.8756     5.9654    -1.0604 H       
  45 H45            2.0850     4.3403    -4.8132 H       
  46 H46            1.4766     6.2815    -3.4271 H       
  47 O47            9.4087    15.1875     7.5116 O.3     
  48 O48            8.1614    11.7322     7.5050 O.3     
  49 O49           10.4850    13.2503     7.4909 O.2     
  50 O50            7.0850    13.6694     7.5256 O.2     
  51 C51            9.4269    13.8421     7.5042 C.2     
  52 C52            8.1432    13.0775     7.5124 C.2     
  53 H53           10.2642    15.6381     7.5059 H       
  54 H54            7.3059    11.2815     7.5107 H       
@<TRIPOS>BOND
   1    1   19 1
   2    2   11 2
   3    3    6 1
   4    3    8 1
   5    3   14 1
   6    4    5 1
   7    4   11 am
   8    4   30 1
   9    5    7 ar
  10    5    9 ar
  11    6   11 1
  12    6   24 1
  13    6   25 1
  14    7   10 1
  15    7   13 ar
  16    8   12 1
  17    8   26 1
  18    8   27 1
  19    9   15 ar
  20    9   17 1
  21   10   18 1
  22   10   28 1
  23   10   29 1
  24   12   19 ar
  25   12   20 ar
  26   13   16 ar
  27   13   31 1
  28   14   32 1
  29   14   33 1
  30   14   34 1
  31   15   16 ar
  32   15   35 1
  33   16   36 1
  34   17   37 1
  35   17   38 1
  36   17   39 1
  37   18   40 1
  38   18   41 1
  39   18   42 1
  40   19   21 ar
  41   20   22 ar
  42   20   43 1
  43   21   23 ar
  44   21   44 1
  45   22   23 ar
  46   22   45 1
  47   23   46 1
  48   47   51 1
  49   47   53 1
  50   48   52 1
  51   48   54 1
  52   49   51 2
  53   50   52 2
  54   51   52 1

#	End of record

#	Name: 15945222
#	Creating user name:	landrgr1
#	Creation time:	28. 01. 2015 13:52

#	Modifying user name:	landrgr1
#	Modification time:	28. 01. 2015 13:52

#	Program:	corina 3.48 0006  22.01.2010

@<TRIPOS>MOLECULE
15945222
  34   34    0    0    0
SMALL
NO_CHARGES


@<TRIPOS>ATOM
   1 Br1           -2.1292   -10.8368     2.5034 Br      
   2 O2            -2.3342    -4.0216     2.3454 O.2     
   3 O3            -0.0162     1.3429     0.0094 O.3     
   4 O4             1.0621    -0.5970    -0.0113 O.2     
   5 N5            -2.3932    -2.8295     0.0101 N.ar    
   6 C6            -2.3494    -4.2938     0.0014 C.3     
   7 C7            -2.3200    -4.8040     1.4191 C.2     
   8 C8            -1.2618    -2.1557     0.0025 C.ar    
   9 C9            -3.5651    -2.2236     0.0200 C.ar    
  10 C10           -2.2740    -6.2512     1.6792 C.ar    
  11 C11           -1.2670    -0.7600     0.0101 C.ar    
  12 C12           -3.6556    -0.8429     0.0281 C.ar    
  13 C13           -2.4961    -0.0883     0.0259 C.ar    
  14 C14           -2.2466    -6.7285     2.9938 C.ar    
  15 C15           -2.2633    -7.1569     0.6131 C.ar    
  16 C16            0.0021    -0.0041     0.0020 C.2     
  17 C17           -2.2040    -8.0857     3.2298 C.ar    
  18 C18           -2.2206    -8.5114     0.8645 C.ar    
  19 C19           -2.1883    -8.9765     2.1690 C.ar    
  20 C20            1.2684     2.0196     0.0008 C.3     
  21 H21           -3.2333    -4.6807    -0.5058 H       
  22 H22           -1.4542    -4.6274    -0.5235 H       
  23 H23           -0.3220    -2.6876    -0.0093 H       
  24 H24           -4.4688    -2.8150     0.0218 H       
  25 H25           -4.6213    -0.3595     0.0361 H       
  26 H26           -2.5376     0.9909     0.0321 H       
  27 H27           -2.2584    -6.0351     3.8218 H       
  28 H28           -2.2888    -6.7957    -0.4044 H       
  29 H29           -2.1824    -8.4557     4.2442 H       
  30 H30           -2.2126    -9.2119     0.0425 H       
  31 H31            1.1110     3.0982     0.0081 H       
  32 H32            1.8378     1.7296     0.8838 H       
  33 H33            1.8208     1.7391    -0.8960 H       
  34 Cl34           6.8378     8.0982     9.2442 Cl      
@<TRIPOS>BOND
   1    1   19 1
   2    2    7 2
   3    3   16 1
   4    3   20 1
   5    4   16 2
   6    5    6 1
   7    5    8 ar
   8    5    9 ar
   9    6    7 1
  10    6   21 1
  11    6   22 1
  12    7   10 1
  13    8   11 ar
  14    8   23 1
  15    9   12 ar
  16    9   24 1
  17   10   14 ar
  18   10   15 ar
  19   11   13 ar
  20   11   16 1
  21   12   13 ar
  22   12   25 1
  23   13   26 1
  24   14   17 ar
  25   14   27 1
  26   15   18 ar
  27   15   28 1
  28   17   19 ar
  29   17   29 1
  30   18   19 ar
  31   18   30 1
  32   20   31 1
  33   20   32 1
  34   20   33 1

#	End of record

#	Name: 15945151
#	Creating user name:	landrgr1
#	Creation time:	28. 01. 2015 13:52

#	Modifying user name:	landrgr1
#	Modification time:	28. 01. 2015 13:52

#	Program:	corina 3.48 0006  22.01.2010

@<TRIPOS>MOLECULE
15945151
  60   63    0    0    0
SMALL
NO_CHARGES


@<TRIPOS>ATOM
   1 S1            -0.0218     1.7541     0.0117 S.3     
   2 O2            -4.7000    -2.6446     1.6933 O.3     
   3 O3            -2.5296    -2.2568     1.8418 O.2     
   4 O4            -1.0480    -2.0804     0.0000 O.2     
   5 O5            -7.3460    -4.3025     7.2323 O.3     
   6 O6            -6.9176    -3.7535     2.5305 O.2     
   7 N7            -4.6326    -0.0892    -4.1498 N.pl3   
   8 N8            -2.4136    -0.3275     0.0230 N.am    
   9 N9            -6.1093    -4.8370     4.2897 N.am    
  10 C10           -3.5921    -2.0696    -1.2252 C.3     
  11 C11           -3.7421    -1.1991    -2.4462 C.2     
  12 C12           -3.5952    -1.1935     0.0292 C.3     
  13 C13           -2.6663    -0.5089    -3.1618 C.ar    
  14 C14           -3.2833     0.1748    -4.2256 C.ar    
  15 C15           -4.8870    -0.9089    -3.0841 C.2     
  16 C16           -1.2839    -0.4235    -2.9876 C.ar    
  17 C17           -3.5689    -2.0705     1.2544 C.2     
  18 C18           -2.5028     0.9313    -5.0933 C.ar    
  19 C19           -0.5361     0.3256    -3.8520 C.ar    
  20 C20           -1.1401     1.0025    -4.9024 C.ar    
  21 C21           -1.1802    -0.8706     0.0082 C.2     
  22 C22           -4.6000    -3.4764     2.8792 C.3     
  23 C23            0.0021    -0.0041     0.0020 C.2     
  24 C24           -7.4305    -5.3766     4.6206 C.3     
  25 C25           -5.9590    -4.0315     3.2196 C.2     
  26 C26           -7.3266    -6.2399     5.8514 C.ar    
  27 C27            1.2993    -0.4332    -0.0127 C.2     
  28 C28           -7.2893    -5.6547     7.1089 C.ar    
  29 C29           -7.2742    -7.6147     5.7290 C.ar    
  30 C30            2.2121     0.5948    -0.0159 C.2     
  31 C31           -7.1936    -6.4520     8.2399 C.ar    
  32 C32            1.6829     1.8238    -0.0042 C.2     
  33 C33           -7.1788    -8.4075     6.8580 C.ar    
  34 C34           -7.1358    -7.8265     8.1118 C.ar    
  35 C35           -7.3027    -3.7695     8.5575 C.3     
  36 H36           -4.4216    -2.7751    -1.1778 H       
  37 H37           -2.6517    -2.6178    -1.2831 H       
  38 H38           -4.4957    -0.5794     0.0412 H       
  39 H39           -5.8643    -1.2690    -2.7985 H       
  40 H40           -5.3033     0.2577    -4.7586 H       
  41 H41           -2.5190     0.6367     0.0295 H       
  42 H42           -0.8072    -0.9467    -2.1718 H       
  43 H43           -2.9633     1.4609    -5.9142 H       
  44 H44            0.5333     0.3914    -3.7168 H       
  45 H45           -0.5357     1.5902    -5.5775 H       
  46 H46           -3.9091    -4.2979     2.6896 H       
  47 H47           -4.2328    -2.8779     3.7129 H       
  48 H48           -8.1214    -4.5552     4.8102 H       
  49 H49           -7.7977    -5.9751     3.7869 H       
  50 H50           -5.3427    -5.0593     4.8408 H       
  51 H51            1.5797    -1.4762    -0.0206 H       
  52 H52           -7.3080    -8.0710     4.7507 H       
  53 H53            3.2783     0.4230    -0.0266 H       
  54 H54           -7.1641    -5.9989     9.2197 H       
  55 H55           -7.1383    -9.4823     6.7602 H       
  56 H56            2.2581     2.7379    -0.0051 H       
  57 H57           -7.0609    -8.4478     8.9920 H       
  58 H58           -8.1476    -4.1515     9.1304 H       
  59 H59           -6.3719    -4.0688     9.0393 H       
  60 H60           -7.3557    -2.6817     8.5135 H       
@<TRIPOS>BOND
   1    1   23 1
   2    1   32 1
   3    2   17 1
   4    2   22 1
   5    3   17 2
   6    4   21 2
   7    5   28 1
   8    5   35 1
   9    6   25 2
  10    7   14 1
  11    7   15 1
  12    7   40 1
  13    8   12 1
  14    8   21 am
  15    8   41 1
  16    9   24 1
  17    9   25 am
  18    9   50 1
  19   10   11 1
  20   10   12 1
  21   10   36 1
  22   10   37 1
  23   11   13 1
  24   11   15 2
  25   12   17 1
  26   12   38 1
  27   13   14 ar
  28   13   16 ar
  29   14   18 ar
  30   15   39 1
  31   16   19 ar
  32   16   42 1
  33   18   20 ar
  34   18   43 1
  35   19   20 ar
  36   19   44 1
  37   20   45 1
  38   21   23 1
  39   22   25 1
  40   22   46 1
  41   22   47 1
  42   23   27 2
  43   24   26 1
  44   24   48 1
  45   24   49 1
  46   26   28 ar
  47   26   29 ar
  48   27   30 1
  49   27   51 1
  50   28   31 ar
  51   29   33 ar
  52   29   52 1
  53   30   32 2
  54   30   53 1
  55   31   34 ar
  56   31   54 1
  57   32   56 1
  58   33   34 ar
  59   33   55 1
  60   34   57 1
  61   35   58 1
  62   35   59 1
  63   35   60 1

#	End of record

#	Name: 15944999
#	Creating user name:	landrgr1
#	Creation time:	28. 01. 2015 13:52

#	Modifying user name:	landrgr1
#	Modification time:	28. 01. 2015 13:52

#	Program:	corina 3.48 0006  22.01.2010

@<TRIPOS>MOLECULE
15944999
  32   31    0    0    0
SMALL
NO_CHARGES


@<TRIPOS>ATOM
   1 I1             0.0000     0.0000     0.0000 I       
   2 H2             0.0000     1.7100     0.0000 H       
   3 S3             9.8990    17.6795     5.9365 S.3     
   4 S4             5.0000    12.4628     5.9550 S.3     
   5 O5             8.3049     9.5692     5.9092 O.3     
   6 O6             9.5428    11.4127     5.9079 O.2     
   7 N7             8.5081    13.8752     5.9294 N.pl3   
   8 N8             6.1280    13.7257     5.9508 N.2     
   9 N9             6.0201    11.2802     5.9396 N.2     
  10 N10           12.0828    19.3080     5.9244 N.pl3   
  11 N11           12.4817    17.0214     5.9083 N.2     
  12 C12            8.4882    15.3401     5.9374 C.3     
  13 C13            9.9236    15.8697     5.9266 C.3     
  14 C14            7.3113    13.1624     5.9370 C.2     
  15 C15            7.2385    11.7677     5.9307 C.2     
  16 C16            8.4362    10.9105     5.9152 C.2     
  17 C17            9.5281     8.7871     5.8940 C.3     
  18 C18            9.1808     7.2971     5.8891 C.3     
  19 C19           11.6299    18.0090     5.9218 C.2     
  20 H20            7.9610    15.7012     5.0544 H       
  21 H21            7.9780    15.6916     6.8342 H       
  22 H22           10.4338    15.5181     5.0298 H       
  23 H23           10.4508    15.5086     6.8096 H       
  24 H24            9.3546    13.4017     5.9188 H       
  25 H25           10.1029     9.0291     5.0000 H       
  26 H26           10.1191     9.0196     6.7799 H       
  27 H27           10.0991     6.7100     5.8777 H       
  28 H28            8.6060     7.0551     6.7831 H       
  29 H29            8.5898     7.0646     5.0032 H       
  30 H30           11.4493    20.0425     5.9344 H       
  31 H31           13.0356    19.4894     5.9163 H       
  32 H32           13.4345    17.2028     5.9002 H       
@<TRIPOS>BOND
   1    1    2 1
   2    3   13 1
   3    3   19 1
   4    4    8 1
   5    4    9 1
   6    5   16 1
   7    5   17 1
   8    6   16 2
   9    7   12 1
  10    7   14 1
  11    7   24 1
  12    8   14 2
  13    9   15 2
  14   10   19 1
  15   10   30 1
  16   10   31 1
  17   11   19 2
  18   11   32 1
  19   12   13 1
  20   12   20 1
  21   12   21 1
  22   13   22 1
  23   13   23 1
  24   14   15 1
  25   15   16 1
  26   17   18 1
  27   17   25 1
  28   17   26 1
  29   18   27 1
  30   18   28 1
  31   18   29 1

#	End of record

#	Name: 15944991
#	Creating user name:	landrgr1
#	Creation time:	28. 01. 2015 13:52

#	Modifying user name:	landrgr1
#	Modification time:	28. 01. 2015 13:52

#	Program:	corina 3.48 0006  22.01.2010

@<TRIPOS>MOLECULE
15944991
  49   49    0    0    0
SMALL
NO_CHARGES


@<TRIPOS>ATOM
   1 Br1           -4.8260     1.2674     9.3738 Br      
   2 O2             0.0530     1.5219    -0.1078 O.3     
   3 O3             0.2298     0.1474     2.4100 O.3     
   4 O4            -1.1392    -0.3234     4.8928 O.3     
   5 N5            -0.0698    -0.1164    -2.4365 N.3     
   6 N6            -1.5155    -0.5999    -4.8410 N.3     
   7 C7            -1.4047    -0.7298    -2.3988 C.3     
   8 C8             0.6343    -0.4702    -3.6769 C.3     
   9 C9            -2.2196    -0.2461    -3.6006 C.3     
  10 C10           -0.1806     0.0135    -4.8787 C.3     
  11 C11            0.7182    -0.4975    -1.2568 C.3     
  12 C12            0.0769     0.0970    -0.0013 C.3     
  13 C13           -2.3035    -0.2188    -6.0207 C.3     
  14 C14            0.8915    -0.3089     1.2285 C.3     
  15 C15            0.9116    -0.1818     3.6220 C.3     
  16 C16            0.1173     0.3529     4.8154 C.3     
  17 C17           -1.9721     0.0361     5.9049 C.ar    
  18 C18           -3.2078    -0.5798     6.0395 C.ar    
  19 C19           -1.5853     1.0154     6.8081 C.ar    
  20 C20           -4.0527    -0.2133     7.0691 C.ar    
  21 C21           -2.4331     1.3790     7.8363 C.ar    
  22 C22           -3.6672     0.7673     7.9657 C.ar    
  23 H23           -1.3076    -1.8148    -2.4382 H       
  24 H24           -1.9108    -0.4429    -1.4770 H       
  25 H25            1.6148     0.0059    -3.6870 H       
  26 H26            0.7546    -1.5522    -3.7309 H       
  27 H27           -2.3399     0.8359    -3.5467 H       
  28 H28           -3.2001    -0.7222    -3.5905 H       
  29 H29            0.3255    -0.2734    -5.8005 H       
  30 H30           -0.2777     1.0985    -4.8393 H       
  31 H31            0.7435    -1.5839    -1.1722 H       
  32 H32            1.7345    -0.1174    -1.3604 H       
  33 H33           -0.9420    -0.2770     0.0981 H       
  34 H34           -2.4749     0.8576    -6.0110 H       
  35 H35           -1.7593    -0.4919    -6.9249 H       
  36 H36           -3.2610    -0.7393    -6.0017 H       
  37 H37            1.8834     0.1394     1.1715 H       
  38 H38            0.9847    -1.3945     1.2605 H       
  39 H39            0.9276     1.9242    -0.1993 H       
  40 H40            1.0051    -1.2647     3.7036 H       
  41 H41            1.9039     0.2691     3.6146 H       
  42 H42           -0.0528     1.4221     4.6890 H       
  43 H43            0.6798     0.1805     5.7329 H       
  44 H44           -3.5093    -1.3451     5.3395 H       
  45 H45           -0.6219     1.4930     6.7077 H       
  46 H46           -5.0149    -0.6923     7.1740 H       
  47 H47           -2.1324     2.1414     8.5397 H       
  48 Cl48           6.9039     7.1414    14.3738 Cl      
  49 H49            6.9039     8.5114    14.3738 H       
@<TRIPOS>BOND
   1    1   22 1
   2    2   12 1
   3    2   39 1
   4    3   14 1
   5    3   15 1
   6    4   16 1
   7    4   17 1
   8    5    7 1
   9    5    8 1
  10    5   11 1
  11    6    9 1
  12    6   10 1
  13    6   13 1
  14    7    9 1
  15    7   23 1
  16    7   24 1
  17    8   10 1
  18    8   25 1
  19    8   26 1
  20    9   27 1
  21    9   28 1
  22   10   29 1
  23   10   30 1
  24   11   12 1
  25   11   31 1
  26   11   32 1
  27   12   14 1
  28   12   33 1
  29   13   34 1
  30   13   35 1
  31   13   36 1
  32   14   37 1
  33   14   38 1
  34   15   16 1
  35   15   40 1
  36   15   41 1
  37   16   42 1
  38   16   43 1
  39   17   18 ar
  40   17   19 ar
  41   18   20 ar
  42   18   44 1
  43   19   21 ar
  44   19   45 1
  45   20   22 ar
  46   20   46 1
  47   21   22 ar
  48   21   47 1
  49   48   49 1

#	End of record

#	Name: 15944987
#	Creating user name:	landrgr1
#	Creation time:	28. 01. 2015 13:52

#	Modifying user name:	landrgr1
#	Modification time:	28. 01. 2015 13:52

#	Program:	corina 3.48 0006  22.01.2010

@<TRIPOS>MOLECULE
15944987
  53   57    0    0    0
SMALL
NO_CHARGES


@<TRIPOS>ATOM
   1 S1             0.0781     1.6114     1.0075 S.3     
   2 O2            -1.9923    -0.0992     1.7814 O.2     
   3 O3             3.5607     5.0485    -0.3069 O.3     
   4 O4             4.5969     0.5338    -0.5111 O.2     
   5 N5            -1.1714    -2.1488     1.5641 N.am    
   6 N6             1.9980     3.3775     0.2840 N.pl3   
   7 N7             2.5601     1.1140     0.1639 N.2     
   8 C8            -3.9880    -4.5352     1.8310 C.ar    
   9 C9            -6.0995    -4.7107     2.8225 C.3     
  10 C10           -5.7933    -6.0073     2.0420 C.3     
  11 C11           -4.8870    -3.8325     2.6276 C.ar    
  12 C12           -4.4231    -5.7987     1.4445 C.ar    
  13 C13           -2.7383    -4.0151     1.4512 C.ar    
  14 C14           -4.5360    -2.5854     3.0487 C.ar    
  15 C15           -2.3969    -2.7238     1.9054 C.ar    
  16 C16           -3.5969    -6.5482     0.6634 C.ar    
  17 C17           -1.9119    -4.8129     0.6464 C.ar    
  18 C18           -3.3062    -2.0359     2.6857 C.ar    
  19 C19           -2.3535    -6.0494     0.2705 C.ar    
  20 C20           -1.0559    -0.8087     1.4800 C.2     
  21 C21            0.2368    -0.1917     1.0117 C.3     
  22 C22            1.6838     2.0585     0.4362 C.2     
  23 C23            1.0459     4.3611     0.5818 C.ar    
  24 C24            3.2443     3.7433    -0.1539 C.2     
  25 C25            4.1590     2.7744    -0.4333 C.2     
  26 C26            3.7943     1.4217    -0.2627 C.2     
  27 C27            1.2164     5.1820     1.6886 C.ar    
  28 C28           -0.0673     4.5210    -0.2326 C.ar    
  29 C29            5.5384     3.1404    -0.9172 C.3     
  30 C30            0.2762     6.1511     1.9793 C.ar    
  31 C31           -1.0040     5.4919     0.0633 C.ar    
  32 C32           -0.8340     6.3043     1.1693 C.ar    
  33 H33           -6.9867    -4.2254     2.4156 H       
  34 H34           -6.2403    -4.9310     3.8807 H       
  35 H35           -5.7844    -6.8621     2.7182 H       
  36 H36           -6.5306    -6.1565     1.2532 H       
  37 H37           -5.2149    -2.0178     3.6678 H       
  38 H38           -3.9051    -7.5335     0.3463 H       
  39 H39           -0.9434    -4.4554     0.3291 H       
  40 H40           -3.0532    -1.0450     3.0329 H       
  41 H41           -1.7171    -6.6642    -0.3487 H       
  42 H42           -0.4030    -2.7139     1.3874 H       
  43 H43            0.4607    -0.5390     0.0031 H       
  44 H44            1.0434    -0.4838     1.6841 H       
  45 H45            2.0831     5.0625     2.3218 H       
  46 H46           -0.2004     3.8870    -1.0968 H       
  47 H47            6.2032     3.2620    -0.0620 H       
  48 H48            5.9187     2.3491    -1.5633 H       
  49 H49            5.4913     4.0748    -1.4765 H       
  50 H50            0.4081     6.7896     2.8403 H       
  51 H51           -1.8700     5.6167    -0.5698 H       
  52 H52           -1.5678     7.0628     1.3986 H       
  53 H53            4.4629     5.2005    -0.6201 H       
@<TRIPOS>BOND
   1    1   21 1
   2    1   22 1
   3    2   20 2
   4    3   24 1
   5    3   53 1
   6    4   26 2
   7    5   15 1
   8    5   20 am
   9    5   42 1
  10    6   22 1
  11    6   23 1
  12    6   24 1
  13    7   22 2
  14    7   26 1
  15    8   11 ar
  16    8   12 ar
  17    8   13 ar
  18    9   10 1
  19    9   11 1
  20    9   33 1
  21    9   34 1
  22   10   12 1
  23   10   35 1
  24   10   36 1
  25   11   14 ar
  26   12   16 ar
  27   13   15 ar
  28   13   17 ar
  29   14   18 ar
  30   14   37 1
  31   15   18 ar
  32   16   19 ar
  33   16   38 1
  34   17   19 ar
  35   17   39 1
  36   18   40 1
  37   19   41 1
  38   20   21 1
  39   21   43 1
  40   21   44 1
  41   23   27 ar
  42   23   28 ar
  43   24   25 2
  44   25   26 1
  45   25   29 1
  46   27   30 ar
  47   27   45 1
  48   28   31 ar
  49   28   46 1
  50   29   47 1
  51   29   48 1
  52   29   49 1
  53   30   32 ar
  54   30   50 1
  55   31   32 ar
  56   31   51 1
  57   32   52 1

#	End of record

#	Name: 15944958
#	Creating user name:	landrgr1
#	Creation time:	28. 01. 2015 13:52

#	Modifying user name:	landrgr1
#	Modification time:	28. 01. 2015 13:52

#	Program:	corina 3.48 0006  22.01.2010

@<TRIPOS>MOLECULE
15944958
  52   55    0    0    0
SMALL
NO_CHARGES


@<TRIPOS>ATOM
   1 S1             0.1501     1.7044    -0.6050 S.3     
   2 O2            -0.1293     1.7780     2.0226 O.3     
   3 O3            -4.1738     0.4711     0.8971 O.2     
   4 O4            -3.9025    -0.3597    -1.8659 O.2     
   5 O5            -1.9076    -1.3724    -3.5160 O.3     
   6 O6             3.8609    -3.8292    -2.3209 O.3     
   7 N7            -2.0234    -0.2332     1.0668 N.am    
   8 C8            -1.4020     1.5381     2.6346 C.3     
   9 C9            -1.7822     0.0641     2.4809 C.3     
  10 C10           -1.2740     1.8927     4.1316 C.3     
  11 C11           -1.0524    -0.8281     0.1440 C.3     
  12 C12           -0.0432     2.8397     4.1420 C.3     
  13 C13            0.8150     2.2190     3.0111 C.3     
  14 C14           -1.7435    -0.9451    -1.1948 C.2     
  15 C15           -3.1725    -0.0099     0.4072 C.2     
  16 C16            0.1578     0.0619     0.0240 C.2     
  17 C17           -3.0376    -0.4358    -1.0120 C.2     
  18 C18           -1.2083    -1.4513    -2.3637 C.2     
  19 C19            1.3988    -0.2758     0.3778 C.2     
  20 C20            0.1232    -2.0763    -2.3527 C.ar    
  21 C21            2.3514     0.7078     0.1745 C.2     
  22 C22            1.8839     1.8442    -0.3444 C.2     
  23 C23            0.4357    -3.0469    -1.3932 C.ar    
  24 C24            1.0805    -1.7066    -3.3053 C.ar    
  25 C25            1.6829    -3.6285    -1.3871 C.ar    
  26 C26            2.3248    -2.2942    -3.2907 C.ar    
  27 C27            2.6323    -3.2534    -2.3317 C.ar    
  28 C28            4.7883    -3.3978    -3.3190 C.3     
  29 C29            6.1082    -4.1528    -3.1490 C.3     
  30 H30           -2.1609     2.1662     2.1680 H       
  31 H31           -2.6864    -0.1396     3.0544 H       
  32 H32           -0.9692    -0.5612     2.8500 H       
  33 H33           -2.1653     2.4110     4.4851 H       
  34 H34           -1.0816     0.9999     4.7266 H       
  35 H35           -0.7565    -1.8153     0.4988 H       
  36 H36           -0.3323     3.8623     3.8996 H       
  37 H37            0.4774     2.7969     5.0987 H       
  38 H38            1.3875     1.3730     3.3914 H       
  39 H39            1.4831     2.9692     2.5879 H       
  40 H40            1.6419    -1.2432     0.7918 H       
  41 H41            3.3940     0.5659     0.4179 H       
  42 H42            2.4791     2.7167    -0.5702 H       
  43 H43           -1.4520    -1.7530    -4.2794 H       
  44 H44           -0.3006    -3.3384    -0.6588 H       
  45 H45            0.8427    -0.9619    -4.0504 H       
  46 H46            1.9249    -4.3773    -0.6474 H       
  47 H47            3.0638    -2.0101    -4.0253 H       
  48 H48            4.3782    -3.6012    -4.3082 H       
  49 H49            4.9655    -2.3277    -3.2120 H       
  50 H50            6.5183    -3.9494    -2.1598 H       
  51 H51            5.9310    -5.2229    -3.2559 H       
  52 H52            6.8155    -3.8237    -3.9103 H       
@<TRIPOS>BOND
   1    1   16 1
   2    1   22 1
   3    2    8 1
   4    2   13 1
   5    3   15 2
   6    4   17 2
   7    5   18 1
   8    5   43 1
   9    6   27 1
  10    6   28 1
  11    7    9 1
  12    7   11 1
  13    7   15 am
  14    8    9 1
  15    8   10 1
  16    8   30 1
  17    9   31 1
  18    9   32 1
  19   10   12 1
  20   10   33 1
  21   10   34 1
  22   11   14 1
  23   11   16 1
  24   11   35 1
  25   12   13 1
  26   12   36 1
  27   12   37 1
  28   13   38 1
  29   13   39 1
  30   14   17 1
  31   14   18 2
  32   15   17 1
  33   16   19 2
  34   18   20 1
  35   19   21 1
  36   19   40 1
  37   20   23 ar
  38   20   24 ar
  39   21   22 2
  40   21   41 1
  41   22   42 1
  42   23   25 ar
  43   23   44 1
  44   24   26 ar
  45   24   45 1
  46   25   27 ar
  47   25   46 1
  48   26   27 ar
  49   26   47 1
  50   28   29 1
  51   28   48 1
  52   28   49 1
  53   29   50 1
  54   29   51 1
  55   29   52 1

#	End of record

#	Name: 15944851
#	Creating user name:	landrgr1
#	Creation time:	28. 01. 2015 13:52

#	Modifying user name:	landrgr1
#	Modification time:	28. 01. 2015 13:52

#	Program:	corina 3.48 0006  22.01.2010

@<TRIPOS>MOLECULE
15944851
  49   52    0    0    0
SMALL
NO_CHARGES


@<TRIPOS>ATOM
   1 S1            -0.0378     1.7771     0.0743 S.3     
   2 S2             2.7668     3.1980     0.0967 S.3     
   3 O3            -2.4821    -4.2148     3.3850 O.2     
   4 O4             0.1696    -2.6365     0.0224 O.2     
   5 O5             9.5690     5.2687     0.1336 O.3     
   6 O6             5.0934     4.7504     0.1199 O.2     
   7 N7            -1.6774    -4.9702     1.4032 N.am    
   8 N8            -1.1157    -0.8282     0.0408 N.am    
   9 N9             1.2381    -0.3619     0.0512 N.2     
  10 N10            2.1230     0.5364     0.0635 N.2     
  11 N11            6.7704     3.2982     0.1052 N.am    
  12 N12            9.0160     4.1936     0.1197 N.2     
  13 C13           -2.1493    -3.0752     0.0116 C.3     
  14 C14           -1.7190    -4.5588    -0.0049 C.3     
  15 C15           -2.9256    -2.9870     1.3460 C.3     
  16 C16           -2.3519    -4.1084     2.1838 C.2     
  17 C17           -0.9481    -2.1654     0.0253 C.2     
  18 C18           -1.0246    -6.1155     1.8722 C.ar    
  19 C19           -0.4614    -7.0124     0.9739 C.ar    
  20 C20           -0.9336    -6.3548     3.2371 C.ar    
  21 C21            0.1822    -8.1420     1.4401 C.ar    
  22 C22           -0.2886    -7.4862     3.6968 C.ar    
  23 C23           -0.0055     0.0127     0.0534 C.2     
  24 C24            0.2662    -8.3803     2.7996 C.ar    
  25 C25            1.7271     1.7756     0.0775 C.2     
  26 C26            4.4346     2.4845     0.0910 C.3     
  27 C27            5.4553     3.5930     0.1064 C.2     
  28 C28            7.7153     4.3244     0.1194 C.2     
  29 C29            7.4572     5.7209     0.1360 C.2     
  30 C30            8.6886     6.2801     0.1446 C.2     
  31 C31            9.0089     7.7526     0.1630 C.3     
  32 H32           -2.7992    -2.8481    -0.8335 H       
  33 H33           -0.7323    -4.6603    -0.4569 H       
  34 H34           -2.4483    -5.1570    -0.5513 H       
  35 H35           -2.7507    -2.0242     1.8261 H       
  36 H36           -3.9913    -3.1428     1.1784 H       
  37 H37           -2.0095    -0.4514     0.0431 H       
  38 H38           -0.5270    -6.8270    -0.0880 H       
  39 H39           -1.3663    -5.6567     3.9384 H       
  40 H40            0.6201    -8.8401     0.7420 H       
  41 H41           -0.2171    -7.6727     4.7582 H       
  42 H42            0.7701    -9.2643     3.1616 H       
  43 H43            4.5649     1.8583     0.9737 H       
  44 H44            4.5681     1.8800    -0.8062 H       
  45 H45            7.0599     2.3725     0.0944 H       
  46 H46            6.4997     6.2204     0.1400 H       
  47 H47           10.0903     7.8892     0.1657 H       
  48 H48            8.5849     8.2276    -0.7217 H       
  49 H49            8.5830     8.2059     1.0581 H       
@<TRIPOS>BOND
   1    1   23 1
   2    1   25 1
   3    2   25 1
   4    2   26 1
   5    3   16 2
   6    4   17 2
   7    5   12 1
   8    5   30 1
   9    6   27 2
  10    7   14 1
  11    7   16 am
  12    7   18 1
  13    8   17 am
  14    8   23 1
  15    8   37 1
  16    9   10 1
  17    9   23 2
  18   10   25 2
  19   11   27 am
  20   11   28 1
  21   11   45 1
  22   12   28 2
  23   13   14 1
  24   13   15 1
  25   13   17 1
  26   13   32 1
  27   14   33 1
  28   14   34 1
  29   15   16 1
  30   15   35 1
  31   15   36 1
  32   18   19 ar
  33   18   20 ar
  34   19   21 ar
  35   19   38 1
  36   20   22 ar
  37   20   39 1
  38   21   24 ar
  39   21   40 1
  40   22   24 ar
  41   22   41 1
  42   24   42 1
  43   26   27 1
  44   26   43 1
  45   26   44 1
  46   28   29 1
  47   29   30 2
  48   29   46 1
  49   30   31 1
  50   31   47 1
  51   31   48 1
  52   31   49 1

#	End of record

#	Name: 15944818
#	Creating user name:	landrgr1
#	Creation time:	28. 01. 2015 13:52

#	Modifying user name:	landrgr1
#	Modification time:	28. 01. 2015 13:52

#	Program:	corina 3.48 0006  22.01.2010

@<TRIPOS>MOLECULE
15944818
  51   53    0    0    0
SMALL
NO_CHARGES


@<TRIPOS>ATOM
   1 S1            -0.0211     1.7017     0.0114 S.3     
   2 O2             1.7898    -2.5437    -1.1965 O.3     
   3 O3             1.8852     4.2156     0.0063 O.3     
   4 O4            -4.7145    -2.8464     0.0292 O.3     
   5 O5             1.7956    -2.4912     1.0247 O.2     
   6 O6             3.7291     2.9741    -0.0184 O.2     
   7 O7            -2.4653     0.9594     0.0308 O.2     
   8 O8            -9.6240    -4.6140     0.0635 O.3     
   9 N9            -1.1201    -0.8069     0.0080 N.am    
  10 N10           -3.5822    -2.4232     0.0215 N.2     
  11 C11            2.2565     0.5408    -0.0166 C.2     
  12 C12            1.3020    -0.4675    -0.0129 C.2     
  13 C13            0.0021    -0.0041     0.0020 C.2     
  14 C14            1.7334     1.7847    -0.0049 C.2     
  15 C15            3.7391     0.2711    -0.0322 C.3     
  16 C16            1.6439    -1.8943    -0.0238 C.2     
  17 C17            2.5136     3.0216    -0.0062 C.2     
  18 C18           -2.3472    -0.2497     0.0228 C.2     
  19 C19           -3.5532    -1.1125     0.0292 C.2     
  20 C20           -5.6183    -1.8509     0.0434 C.2     
  21 C21           -4.9063    -0.6840     0.0441 C.2     
  22 C22           -7.0903    -1.9907     0.0559 C.ar    
  23 C23            2.1283    -3.9541    -1.1313 C.3     
  24 C24           -7.6728    -3.2578     0.0541 C.ar    
  25 C25           -7.9016    -0.8549     0.0754 C.ar    
  26 C26            2.7098     5.3827     0.0043 C.3     
  27 C27           -9.0522    -3.3811     0.0658 C.ar    
  28 C28           -9.2747    -0.9889     0.0870 C.ar    
  29 C29           -9.8511    -2.2459     0.0793 C.ar    
  30 C30            2.2511    -4.5152    -2.5494 C.3     
  31 C31            1.8260     6.6315     0.0195 C.3     
  32 H32            4.0867     0.2116    -1.0635 H       
  33 H33            4.2607     1.0789     0.4810 H       
  34 H34            3.9421    -0.6723     0.4747 H       
  35 H35           -1.0258    -1.7723     0.0016 H       
  36 H36           -5.2848     0.3275     0.0536 H       
  37 H37            3.0771    -4.0763    -0.6088 H       
  38 H38            1.3462    -4.4911    -0.5945 H       
  39 H39           -7.0502    -4.1402     0.0431 H       
  40 H40           -7.4547     0.1283     0.0818 H       
  41 H41            3.3479     5.3783     0.8880 H       
  42 H42            3.3303     5.3876    -0.8919 H       
  43 H43           -9.9014    -0.1094     0.1024 H       
  44 H44          -10.9265    -2.3448     0.0884 H       
  45 H45            1.3023    -4.3931    -3.0719 H       
  46 H46            3.0332    -3.9783    -3.0862 H       
  47 H47            2.5052    -5.5741    -2.5005 H       
  48 H48            1.1879     6.6359    -0.8642 H       
  49 H49            1.2055     6.6266     0.9157 H       
  50 H50            2.4550     7.5217     0.0180 H       
  51 H51           -9.7815    -4.9762     0.9462 H       
@<TRIPOS>BOND
   1    1   13 1
   2    1   14 1
   3    2   16 1
   4    2   23 1
   5    3   17 1
   6    3   26 1
   7    4   10 1
   8    4   20 1
   9    5   16 2
  10    6   17 2
  11    7   18 2
  12    8   27 1
  13    8   51 1
  14    9   13 1
  15    9   18 am
  16    9   35 1
  17   10   19 2
  18   11   12 1
  19   11   14 2
  20   11   15 1
  21   12   13 2
  22   12   16 1
  23   14   17 1
  24   15   32 1
  25   15   33 1
  26   15   34 1
  27   18   19 1
  28   19   21 1
  29   20   21 2
  30   20   22 1
  31   21   36 1
  32   22   24 ar
  33   22   25 ar
  34   23   30 1
  35   23   37 1
  36   23   38 1
  37   24   27 ar
  38   24   39 1
  39   25   28 ar
  40   25   40 1
  41   26   31 1
  42   26   41 1
  43   26   42 1
  44   27   29 ar
  45   28   29 ar
  46   28   43 1
  47   29   44 1
  48   30   45 1
  49   30   46 1
  50   30   47 1
  51   31   48 1
  52   31   49 1
  53   31   50 1

#	End of record

#	Name: 15944803
#	Creating user name:	landrgr1
#	Creation time:	28. 01. 2015 13:52

#	Modifying user name:	landrgr1
#	Modification time:	28. 01. 2015 13:52

#	Program:	corina 3.48 0006  22.01.2010

@<TRIPOS>MOLECULE
15944803
  52   55    0    0    0
SMALL
NO_CHARGES


@<TRIPOS>ATOM
   1 S1            -0.0219     1.7606     0.0117 S.3     
   2 S2             2.7894     3.1684    -0.0070 S.3     
   3 O3            -2.4560    -4.1982     3.3890 O.2     
   4 O4             0.1645    -2.6542    -0.0137 O.2     
   5 O5             9.6010     5.2073    -0.0611 O.3     
   6 O6             5.1232     4.7099    -0.0205 O.2     
   7 N7            -1.6774    -4.9702     1.4032 N.am    
   8 N8            -1.1121    -0.8398     0.0075 N.am    
   9 N9             1.2438    -0.3845    -0.0119 N.2     
  10 N10            2.1329     0.5097    -0.0156 N.2     
  11 N11            6.7933     3.2498    -0.0448 N.am    
  12 N12            9.0429     4.1347    -0.0616 N.2     
  13 C13           -2.1564    -3.0821     0.0047 C.3     
  14 C14           -1.7332    -4.5677    -0.0070 C.3     
  15 C15           -2.9170    -2.9816     1.3473 C.3     
  16 C16           -2.3390    -4.1002     2.1858 C.2     
  17 C17           -1.0246    -6.1155     1.8722 C.ar    
  18 C18           -0.9509    -2.1778    -0.0012 C.2     
  19 C19           -1.7112    -7.3193     1.9645 C.ar    
  20 C20            0.3125    -6.0523     2.2410 C.ar    
  21 C21           -1.0641    -8.4478     2.4278 C.ar    
  22 C22           -3.1610    -7.3937     1.5599 C.3     
  23 C23            0.9541    -7.1847     2.7036 C.ar    
  24 C24            0.2663    -8.3802     2.7997 C.ar    
  25 C25            0.0021    -0.0041     0.0020 C.2     
  26 C26            1.7429     1.7508    -0.0052 C.2     
  27 C27            4.4536     2.4470    -0.0271 C.3     
  28 C28            5.4796     3.5508    -0.0305 C.2     
  29 C29            7.7430     4.2716    -0.0480 C.2     
  30 C30            7.4916     5.6693    -0.0376 C.2     
  31 C31            8.7256     6.2228    -0.0467 C.2     
  32 C32            9.0528     7.6939    -0.0416 C.3     
  33 H33           -2.8148    -2.8574    -0.8344 H       
  34 H34           -0.7522    -4.6768    -0.4695 H       
  35 H35           -2.4714    -5.1660    -0.5411 H       
  36 H36           -2.7322    -2.0165     1.8191 H       
  37 H37           -3.9852    -3.1334     1.1928 H       
  38 H38            0.8505    -5.1188     2.1659 H       
  39 H39           -2.0041    -0.4588     0.0175 H       
  40 H40           -1.5975    -9.3841     2.5001 H       
  41 H41           -3.2304    -7.6451     0.5016 H       
  42 H42           -3.6637    -8.1606     2.1492 H       
  43 H43           -3.6374    -6.4294     1.7363 H       
  44 H44            1.9943    -7.1363     2.9903 H       
  45 H45            0.7700    -9.2642     3.1620 H       
  46 H46            4.5911     1.8259     0.8581 H       
  47 H47            4.5741     1.8361    -0.9218 H       
  48 H48            7.0783     2.3226    -0.0528 H       
  49 H49            6.5365     6.1734    -0.0259 H       
  50 H50           10.1348     7.8254    -0.0520 H       
  51 H51            8.6210     8.1652    -0.9244 H       
  52 H52            8.6393     8.1549     0.8554 H       
@<TRIPOS>BOND
   1    1   25 1
   2    1   26 1
   3    2   26 1
   4    2   27 1
   5    3   16 2
   6    4   18 2
   7    5   12 1
   8    5   31 1
   9    6   28 2
  10    7   14 1
  11    7   16 am
  12    7   17 1
  13    8   18 am
  14    8   25 1
  15    8   39 1
  16    9   10 1
  17    9   25 2
  18   10   26 2
  19   11   28 am
  20   11   29 1
  21   11   48 1
  22   12   29 2
  23   13   14 1
  24   13   15 1
  25   13   18 1
  26   13   33 1
  27   14   34 1
  28   14   35 1
  29   15   16 1
  30   15   36 1
  31   15   37 1
  32   17   19 ar
  33   17   20 ar
  34   19   21 ar
  35   19   22 1
  36   20   23 ar
  37   20   38 1
  38   21   24 ar
  39   21   40 1
  40   22   41 1
  41   22   42 1
  42   22   43 1
  43   23   24 ar
  44   23   44 1
  45   24   45 1
  46   27   28 1
  47   27   46 1
  48   27   47 1
  49   29   30 1
  50   30   31 2
  51   30   49 1
  52   31   32 1
  53   32   50 1
  54   32   51 1
  55   32   52 1

#	End of record

#	Name: 15944672
#	Creating user name:	landrgr1
#	Creation time:	28. 01. 2015 13:52

#	Modifying user name:	landrgr1
#	Modification time:	28. 01. 2015 13:52

#	Program:	corina 3.48 0006  22.01.2010

@<TRIPOS>MOLECULE
15944672
  52   56    0    0    0
SMALL
NO_CHARGES


@<TRIPOS>ATOM
   1 S1            -0.0217     1.7504     0.0117 S.3     
   2 O2            -3.6947     0.0469     4.2652 O.3     
   3 O3            -2.8561    -1.7783     5.3125 O.3     
   4 O4             4.2732     0.2554    -1.0904 O.2     
   5 O5             0.5389     4.2433     0.0178 O.2     
   6 N6             2.4005     3.0320    -0.0050 N.am    
   7 N7             4.3578     0.2335     1.1301 N.am    
   8 C8            -1.2267    -0.8764     0.0083 C.3     
   9 C9             0.0021    -0.0041     0.0020 C.2     
  10 C10            1.2472    -0.4581    -0.0123 C.2     
  11 C11           -1.6233    -1.1754     1.4311 C.ar    
  12 C12            2.2373     0.5962    -0.0161 C.2     
  13 C13            1.6798     1.8489    -0.0041 C.2     
  14 C14           -2.4982    -0.3353     2.0942 C.ar    
  15 C15           -2.8645    -0.6083     3.4022 C.ar    
  16 C16           -1.1125    -2.2900     2.0699 C.ar    
  17 C17            1.5959    -1.9242    -0.0235 C.3     
  18 C18           -2.3490    -1.7305     4.0460 C.ar    
  19 C19           -1.4730    -2.5683     3.3751 C.ar    
  20 C20            3.6828     0.3517    -0.0304 C.2     
  21 C21            2.5227     5.4763     0.0056 C.ar    
  22 C22            1.7543     4.2147     0.0066 C.2     
  23 C23            2.5894     7.8831     0.0164 C.ar    
  24 C24           -4.0007    -0.9048     5.3015 C.3     
  25 C25            4.0067     7.8301     0.0034 C.ar    
  26 C26            1.8532     6.6888     0.0175 C.ar    
  27 C27            3.9290     5.4370    -0.0017 C.ar    
  28 C28            4.6571     6.5823    -0.0028 C.ar    
  29 C29            1.9460     9.1335     0.0221 C.ar    
  30 C30            4.7389     9.0286     0.0024 C.ar    
  31 C31            2.6895    10.2737     0.0150 C.ar    
  32 C32            4.0818    10.2213     0.0138 C.ar    
  33 H33           -2.0429    -0.3581    -0.4951 H       
  34 H34           -1.0126    -1.8095    -0.5129 H       
  35 H35           -2.8954     0.5350     1.5929 H       
  36 H36           -0.4294    -2.9442     1.5484 H       
  37 H37            1.6702    -2.2721    -1.0538 H       
  38 H38            2.5507    -2.0744     0.4804 H       
  39 H39            0.8191    -2.4864     0.4947 H       
  40 H40            3.3702     3.0093    -0.0140 H       
  41 H41           -1.0716    -3.4391     3.8720 H       
  42 H42           -4.1087    -0.4027     6.2629 H       
  43 H43           -4.9050    -1.4615     5.0553 H       
  44 H44            0.7736     6.7147     0.0272 H       
  45 H45            4.4356     4.4833    -0.0061 H       
  46 H46            5.7360     6.5359    -0.0127 H       
  47 H47            0.8674     9.1889     0.0317 H       
  48 H48            5.8186     9.0044    -0.0071 H       
  49 H49            5.3142     0.0718     1.1206 H       
  50 H50            3.8873     0.3103     1.9748 H       
  51 H51            2.1931    11.2328     0.0193 H       
  52 H52            4.6485    11.1406     0.0134 H       
@<TRIPOS>BOND
   1    1    9 1
   2    1   13 1
   3    2   15 1
   4    2   24 1
   5    3   18 1
   6    3   24 1
   7    4   20 2
   8    5   22 2
   9    6   13 1
  10    6   22 am
  11    6   40 1
  12    7   20 am
  13    7   49 1
  14    7   50 1
  15    8    9 1
  16    8   11 1
  17    8   33 1
  18    8   34 1
  19    9   10 2
  20   10   12 1
  21   10   17 1
  22   11   14 ar
  23   11   16 ar
  24   12   13 2
  25   12   20 1
  26   14   15 ar
  27   14   35 1
  28   15   18 ar
  29   16   19 ar
  30   16   36 1
  31   17   37 1
  32   17   38 1
  33   17   39 1
  34   18   19 ar
  35   19   41 1
  36   21   22 1
  37   21   26 ar
  38   21   27 ar
  39   23   25 ar
  40   23   26 ar
  41   23   29 ar
  42   24   42 1
  43   24   43 1
  44   25   28 ar
  45   25   30 ar
  46   26   44 1
  47   27   28 ar
  48   27   45 1
  49   28   46 1
  50   29   31 ar
  51   29   47 1
  52   30   32 ar
  53   30   48 1
  54   31   32 ar
  55   31   51 1
  56   32   52 1

#	End of record

#	Name: 14291980
#	Creating user name:	landrgr1
#	Creation time:	28. 01. 2015 13:52

#	Modifying user name:	landrgr1
#	Modification time:	28. 01. 2015 13:52

#	Program:	corina 3.48 0006  22.01.2010

@<TRIPOS>MOLECULE
14291980
  59   60    0    0    0
SMALL
NO_CHARGES


@<TRIPOS>ATOM
   1 S1            -0.3210     1.3036     0.5129 S.3     
   2 N2            -4.7471    -1.1201    -1.1193 N.3     
   3 C3            -0.2217    -0.4725     0.7719 C.3     
   4 C4             1.9594     1.2773     2.4124 C.3     
   5 C5             0.6740    -0.8763     1.9212 C.ar    
   6 C6            -1.6303    -1.0057     1.0409 C.3     
   7 C7             1.5776    -0.1450     2.6292 C.ar    
   8 C8             2.3189     1.6678     1.0159 C.ar    
   9 C9            -2.5018    -0.7920    -0.1984 C.3     
  10 C10            1.3248     1.7535     0.0947 C.ar    
  11 C11            0.7905     2.1554     2.8635 C.3     
  12 C12           -3.9104    -1.3252     0.0706 C.3     
  13 C13            0.4895    -2.2268     2.2657 C.ar    
  14 C14            2.2646    -0.7498     3.6932 C.ar    
  15 C15            3.6315     1.9510     0.6784 C.ar    
  16 C16            1.6068     2.1924    -1.2013 C.ar    
  17 C17            1.1710    -2.8187     3.2983 C.ar    
  18 C18            2.0700    -2.0659     4.0313 C.ar    
  19 C19            3.9231     2.3685    -0.6094 C.ar    
  20 C20            2.9095     2.5017    -1.5408 C.ar    
  21 C21           -4.2728    -1.9378    -2.2437 C.3     
  22 C22           -6.1590    -1.3987    -0.8245 C.3     
  23 H23            0.1535    -0.9362    -0.1404 H       
  24 H24            2.8115     1.4996     3.0548 H       
  25 H25           -1.5784    -2.0702     1.2695 H       
  26 H26           -2.0650    -0.4732     1.8868 H       
  27 H27           -2.5537     0.2725    -0.4270 H       
  28 H28           -2.0671    -1.3245    -1.0444 H       
  29 H29            0.8030     2.2473     3.9495 H       
  30 H30            0.8841     3.1440     2.4141 H       
  31 H31           -0.1485     1.7004     2.5482 H       
  32 H32           -4.3451    -0.7927     0.9165 H       
  33 H33           -3.8585    -2.3897     0.2991 H       
  34 H34           -0.2133    -2.8184     1.6979 H       
  35 H35            2.9678    -0.1614     4.2638 H       
  36 H36            4.4185     1.8475     1.4107 H       
  37 H37            0.8151     2.2891    -1.9294 H       
  38 H38            1.0074    -3.8594     3.5361 H       
  39 H39            2.6103    -2.5063     4.8563 H       
  40 H40            4.9429     2.5912    -0.8863 H       
  41 H41            3.1376     2.8487    -2.5378 H       
  42 H42           -4.3100    -2.9916    -1.9678 H       
  43 H43           -4.9098    -1.7667    -3.1115 H       
  44 H44           -3.2466    -1.6617    -2.4863 H       
  45 H45           -6.5040    -0.7308    -0.0353 H       
  46 H46           -6.7560    -1.2391    -1.7224 H       
  47 H47           -6.2645    -2.4330    -0.4971 H       
  48 O48           15.9581     9.0514    10.9023 O.3     
  49 O49           10.5446     9.8744    10.2678 O.3     
  50 O50           14.0082     8.3279    10.1265 O.2     
  51 O51           12.1873     8.7756    11.2785 O.2     
  52 C52           14.1120    10.6186    10.5587 C.2     
  53 C53           12.8058    10.8056    10.3084 C.2     
  54 C54           14.6846     9.2593    10.5137 C.2     
  55 C55           11.8307     9.7524    10.6511 C.2     
  56 H56           14.7433    11.4630    10.7929 H       
  57 H57           12.4692    11.7268     9.8563 H       
  58 H58           16.2889     8.1440    10.8551 H       
  59 H59            9.9429     9.1590    10.5155 H       
@<TRIPOS>BOND
   1    1    3 1
   2    1   10 1
   3    2   12 1
   4    2   21 1
   5    2   22 1
   6    3    5 1
   7    3    6 1
   8    3   23 1
   9    4    7 1
  10    4    8 1
  11    4   11 1
  12    4   24 1
  13    5    7 ar
  14    5   13 ar
  15    6    9 1
  16    6   25 1
  17    6   26 1
  18    7   14 ar
  19    8   10 ar
  20    8   15 ar
  21    9   12 1
  22    9   27 1
  23    9   28 1
  24   10   16 ar
  25   11   29 1
  26   11   30 1
  27   11   31 1
  28   12   32 1
  29   12   33 1
  30   13   17 ar
  31   13   34 1
  32   14   18 ar
  33   14   35 1
  34   15   19 ar
  35   15   36 1
  36   16   20 ar
  37   16   37 1
  38   17   18 ar
  39   17   38 1
  40   18   39 1
  41   19   20 ar
  42   19   40 1
  43   20   41 1
  44   21   42 1
  45   21   43 1
  46   21   44 1
  47   22   45 1
  48   22   46 1
  49   22   47 1
  50   48   54 1
  51   48   58 1
  52   49   55 1
  53   49   59 1
  54   50   54 2
  55   51   55 2
  56   52   53 2
  57   52   54 1
  58   52   56 1
  59   53   55 1
  60   53   57 1

#	End of record

#	Name: 13996146
#	Creating user name:	landrgr1
#	Creation time:	28. 01. 2015 13:52

#	Modifying user name:	landrgr1
#	Modification time:	28. 01. 2015 13:52

#	Program:	corina 3.48 0006  22.01.2010

@<TRIPOS>MOLECULE
13996146
  32   31    0    0    0
SMALL
NO_CHARGES


@<TRIPOS>ATOM
   1 Cl1            0.0000     0.0000     0.0000 Cl      
   2 H2             0.0000     1.3700     0.0000 H       
   3 O3            10.0011     9.6742     7.1285 O.3     
   4 O4            12.2107     9.6556     7.1073 O.2     
   5 O5            12.0531    14.3779     7.1342 O.2     
   6 N6            12.6461    12.2401     7.1171 N.am    
   7 N7            14.4397    15.4694     7.1173 N.3     
   8 C8             8.6069     7.7008     7.1313 C.ar    
   9 C9            10.0207     8.2224     7.1206 C.3     
  10 C10           11.2471    11.8057     7.1281 C.3     
  11 C11            7.9471     7.4680     5.9391 C.ar    
  12 C12            7.9719     7.4497     8.3332 C.ar    
  13 C13           11.1886    10.2998     7.1206 C.2     
  14 C14            6.6502     6.9895     5.9489 C.ar    
  15 C15            6.6751     6.9713     8.3430 C.ar    
  16 C16           12.9436    13.5546     7.1213 C.2     
  17 C17            6.0133     6.7435     7.1509 C.ar    
  18 C18           14.3828    14.0016     7.1099 C.3     
  19 H19           10.5309     7.8709     6.2238 H       
  20 H20           10.5479     7.8613     8.0036 H       
  21 H21           10.7562    12.1839     8.0248 H       
  22 H22           10.7392    12.1934     6.2450 H       
  23 H23            8.4446     7.6602     5.0000 H       
  24 H24            8.4891     7.6271     9.2645 H       
  25 H25           13.3584    11.5817     7.1067 H       
  26 H26            6.1344     6.8083     5.0175 H       
  27 H27            6.1791     6.7748     9.2820 H       
  28 H28            5.0000     6.3700     7.1585 H       
  29 H29           14.8736    13.6234     6.2132 H       
  30 H30           14.8906    13.6138     7.9930 H       
  31 H31           13.9355    15.8469     7.9055 H       
  32 H32           15.3950    15.7943     7.1099 H       
@<TRIPOS>BOND
   1    1    2 1
   2    3    9 1
   3    3   13 1
   4    4   13 2
   5    5   16 2
   6    6   10 1
   7    6   16 am
   8    6   25 1
   9    7   18 1
  10    7   31 1
  11    7   32 1
  12    8    9 1
  13    8   11 ar
  14    8   12 ar
  15    9   19 1
  16    9   20 1
  17   10   13 1
  18   10   21 1
  19   10   22 1
  20   11   14 ar
  21   11   23 1
  22   12   15 ar
  23   12   24 1
  24   14   17 ar
  25   14   26 1
  26   15   17 ar
  27   15   27 1
  28   16   18 1
  29   17   28 1
  30   18   29 1
  31   18   30 1

#	End of record

#	Name: 12006234
#	Creating user name:	landrgr1
#	Creation time:	28. 01. 2015 13:52

#	Modifying user name:	landrgr1
#	Modification time:	28. 01. 2015 13:52

#	Program:	corina 3.48 0006  22.01.2010

@<TRIPOS>MOLECULE
12006234
  53   54    0    0    0
SMALL
NO_CHARGES


@<TRIPOS>ATOM
   1 Cl1           -4.1759    -9.2623    -2.1318 Cl      
   2 O2            -2.2581    -5.1062    -0.2129 O.2     
   3 O3             0.5254     1.7367    -0.7917 O.3     
   4 O4            -1.8513     0.5320    -0.0938 O.3     
   5 O5            -8.3248    -8.5362     1.0707 O.2     
   6 O6            -7.8261    -7.0324     2.4637 O.2     
   7 N7            -0.1477    -4.4469    -1.6629 N.3     
   8 N8            -2.4248    -7.2219    -0.8595 N.am    
   9 N9            -7.5255    -7.7298     1.5114 N.pl3   
  10 C10           -0.4636    -5.8762    -1.5384 C.3     
  11 C11            0.2276    -3.8756    -0.3626 C.3     
  12 C12            0.3047    -2.3749    -0.4768 C.ar    
  13 C13            0.6403    -6.5750    -0.7422 C.3     
  14 C14           -1.7796    -6.0393    -0.8225 C.2     
  15 C15            0.9086    -4.2261    -2.6596 C.3     
  16 C16           -0.8176    -1.6059    -0.2311 C.ar    
  17 C17            1.4988    -1.7699    -0.8224 C.ar    
  18 C18           -0.7482    -0.2259    -0.3352 C.ar    
  19 C19            0.4525     0.3827    -0.6878 C.ar    
  20 C20            1.5748    -0.3936    -0.9280 C.ar    
  21 C21           -3.6890    -7.3482    -0.2719 C.ar    
  22 C22           -4.6016    -8.2679    -0.7740 C.ar    
  23 C23           -4.0319    -6.5587     0.8177 C.ar    
  24 C24           -5.8490    -8.3897    -0.1911 C.ar    
  25 C25           -5.2800    -6.6855     1.3953 C.ar    
  26 C26            1.7902     2.2920    -1.1577 C.3     
  27 C27           -6.1887    -7.5973     0.8898 C.ar    
  28 C28           -3.0491    -0.1609     0.2627 C.3     
  29 C29            1.6779     3.8165    -1.2238 C.3     
  30 H30           -0.5326    -6.3208    -2.5312 H       
  31 H31           -0.5209    -4.1453     0.3824 H       
  32 H32            1.1988    -4.2673    -0.0603 H       
  33 H33            0.4059    -7.6355    -0.6498 H       
  34 H34            1.5921    -6.4570    -1.2600 H       
  35 H35            0.7092    -6.1303     0.2506 H       
  36 H36            0.6201    -4.6887    -3.6034 H       
  37 H37            1.0501    -3.1556    -2.8079 H       
  38 H38            1.8395    -4.6702    -2.3069 H       
  39 H39           -1.7484    -2.0808     0.0416 H       
  40 H40            2.3743    -2.3739    -1.0100 H       
  41 H41           -2.0132    -7.9856    -1.2933 H       
  42 H42            2.5091     0.0765    -1.1975 H       
  43 H43           -3.3231    -5.8463     1.2133 H       
  44 H44           -6.5591    -9.1042    -0.5805 H       
  45 H45           -5.5468    -6.0717     2.2430 H       
  46 H46            2.5376     2.0147    -0.4144 H       
  47 H47            2.0875     1.9070    -2.1331 H       
  48 H48           -2.8805    -0.7318     1.1758 H       
  49 H49           -3.8503     0.5596     0.4275 H       
  50 H50           -3.3303    -0.8389    -0.5431 H       
  51 H51            2.6426     4.2401    -1.5030 H       
  52 H52            0.9305     4.0938    -1.9672 H       
  53 H53            1.3806     4.2015    -0.2484 H       
@<TRIPOS>BOND
   1    1   22 1
   2    2   14 2
   3    3   19 1
   4    3   26 1
   5    4   18 1
   6    4   28 1
   7    5    9 2
   8    6    9 2
   9    7   10 1
  10    7   11 1
  11    7   15 1
  12    8   14 am
  13    8   21 1
  14    8   41 1
  15    9   27 1
  16   10   13 1
  17   10   14 1
  18   10   30 1
  19   11   12 1
  20   11   31 1
  21   11   32 1
  22   12   16 ar
  23   12   17 ar
  24   13   33 1
  25   13   34 1
  26   13   35 1
  27   15   36 1
  28   15   37 1
  29   15   38 1
  30   16   18 ar
  31   16   39 1
  32   17   20 ar
  33   17   40 1
  34   18   19 ar
  35   19   20 ar
  36   20   42 1
  37   21   22 ar
  38   21   23 ar
  39   22   24 ar
  40   23   25 ar
  41   23   43 1
  42   24   27 ar
  43   24   44 1
  44   25   27 ar
  45   25   45 1
  46   26   29 1
  47   26   46 1
  48   26   47 1
  49   28   48 1
  50   28   49 1
  51   28   50 1
  52   29   51 1
  53   29   52 1
  54   29   53 1

#	End of record

#	Name: 12006164
#	Creating user name:	landrgr1
#	Creation time:	28. 01. 2015 13:52

#	Modifying user name:	landrgr1
#	Modification time:	28. 01. 2015 13:52

#	Program:	corina 3.48 0006  22.01.2010

@<TRIPOS>MOLECULE
12006164
  48   52    0    0    0
SMALL
NO_CHARGES


@<TRIPOS>ATOM
   1 S1             0.7474     1.7675    -0.5284 S.3     
   2 O2            -2.8108    -3.5558    -4.3337 O.3     
   3 O3            -3.0406    -1.3491    -3.8746 O.3     
   4 O4             0.5619    -2.4959    -0.4471 O.2     
   5 N5             3.7025    -1.1426     1.5015 N.pl3   
   6 N6             3.9947     0.1272     0.9992 N.2     
   7 N7             1.7570    -2.6341     1.4215 N.am    
   8 C8             1.9468    -0.3944     0.3997 C.2     
   9 C9             2.9373     0.5721     0.3384 C.2     
  10 C10            2.4366    -1.4546     1.1257 C.2     
  11 C11            0.6470    -0.0497    -0.3129 C.3     
  12 C12            2.5764     1.8338    -0.4331 C.3     
  13 C13            4.5627    -1.9500     2.2580 C.ar    
  14 C14            5.9080    -2.0359     1.9256 C.ar    
  15 C15            4.0724    -2.6613     3.3450 C.ar    
  16 C16            0.7823    -3.0741     0.6013 C.2     
  17 C17            6.2608    -3.5441     3.7516 C.ar    
  18 C18            6.7532    -2.8324     2.6731 C.ar    
  19 C19            4.9226    -3.4562     4.0887 C.ar    
  20 C20           -0.0104    -4.2458     0.9705 C.2     
  21 C21           -1.5829    -3.6988    -0.8172 C.ar    
  22 C22           -2.4100    -3.3341    -3.0475 C.ar    
  23 C23           -1.0695    -4.6093     0.2163 C.2     
  24 C24           -2.5520    -1.9745    -2.7653 C.ar    
  25 C25           -1.9281    -4.1935    -2.0801 C.ar    
  26 C26            7.1857    -4.4123     4.5651 C.3     
  27 C27           -1.7297    -2.3346    -0.5410 C.ar    
  28 C28           -2.2102    -1.4839    -1.5116 C.ar    
  29 C29           -3.5820    -2.3966    -4.7005 C.3     
  30 H30           -0.2113    -0.3164     0.3039 H       
  31 H31            0.5956    -0.5489    -1.2805 H       
  32 H32            3.0138     1.8119    -1.4312 H       
  33 H33            2.9005     2.7216     0.1098 H       
  34 H34            1.9852    -3.1387     2.2179 H       
  35 H35            6.2932    -1.4806     1.0831 H       
  36 H36            3.0274    -2.5928     3.6090 H       
  37 H37            7.7997    -2.8999     2.4147 H       
  38 H38            4.5418    -4.0097     4.9343 H       
  39 H39            0.2513    -4.8205     1.8467 H       
  40 H40           -1.5395    -5.5691     0.3722 H       
  41 H41           -1.8174    -5.2455    -2.2977 H       
  42 H42            7.5429    -3.8525     5.4295 H       
  43 H43            6.6486    -5.2986     4.9029 H       
  44 H44            8.0345    -4.7138     3.9514 H       
  45 H45           -1.4659    -1.9492     0.4327 H       
  46 H46           -2.3213    -0.4312    -1.2972 H       
  47 H47           -3.4430    -2.1625    -5.7560 H       
  48 H48           -4.6375    -2.5528    -4.4778 H       
@<TRIPOS>BOND
   1    1   11 1
   2    1   12 1
   3    2   22 1
   4    2   29 1
   5    3   24 1
   6    3   29 1
   7    4   16 2
   8    5    6 1
   9    5   10 1
  10    5   13 1
  11    6    9 2
  12    7   10 1
  13    7   16 am
  14    7   34 1
  15    8    9 1
  16    8   10 2
  17    8   11 1
  18    9   12 1
  19   11   30 1
  20   11   31 1
  21   12   32 1
  22   12   33 1
  23   13   14 ar
  24   13   15 ar
  25   14   18 ar
  26   14   35 1
  27   15   19 ar
  28   15   36 1
  29   16   20 1
  30   17   18 ar
  31   17   19 ar
  32   17   26 1
  33   18   37 1
  34   19   38 1
  35   20   23 2
  36   20   39 1
  37   21   23 1
  38   21   25 ar
  39   21   27 ar
  40   22   24 ar
  41   22   25 ar
  42   23   40 1
  43   24   28 ar
  44   25   41 1
  45   26   42 1
  46   26   43 1
  47   26   44 1
  48   27   28 ar
  49   27   45 1
  50   28   46 1
  51   29   47 1
  52   29   48 1

#	End of record

#	Name: 12006140
#	Creating user name:	landrgr1
#	Creation time:	28. 01. 2015 13:52

#	Modifying user name:	landrgr1
#	Modification time:	28. 01. 2015 13:52

#	Program:	corina 3.48 0006  22.01.2010

@<TRIPOS>MOLECULE
12006140
  51   55    0    0    0
SMALL
NO_CHARGES


@<TRIPOS>ATOM
   1 S1             0.0741     1.4293    -0.0514 S.o2    
   2 S2             2.0357     6.2971    -0.5339 S.3     
   3 O3             0.0861     0.0084    -0.0413 O.2     
   4 O4             1.2531     2.2158    -0.1544 O.2     
   5 N5            -0.9002     1.8797    -1.3124 N.am    
   6 N6             0.2121     7.8650    -1.2758 N.2     
   7 N7             3.4567     8.7059    -0.1722 N.ar    
   8 C8            -3.4547     0.8590     5.3379 C.3     
   9 C9            -3.8691     2.3346     5.3803 C.3     
  10 C10           -3.1859     0.4762     3.8838 C.3     
  11 C11           -2.6475     3.1878     5.0448 C.3     
  12 C12           -2.2415     1.4595     3.2434 C.ar    
  13 C13           -1.9973     2.7060     3.7743 C.ar    
  14 C14           -1.6032     1.0738     2.0715 C.ar    
  15 C15           -0.7302     1.9306     1.4341 C.ar    
  16 C16           -1.1194     3.5682     3.1297 C.ar    
  17 C17           -0.4881     3.1841     1.9650 C.ar    
  18 C18           -1.2145     3.2272    -1.5056 C.ar    
  19 C19           -2.4741     3.5875    -1.9694 C.ar    
  20 C20           -0.2715     4.2057    -1.2291 C.ar    
  21 C21           -0.5903     5.5490    -1.4231 C.ar    
  22 C22           -2.7899     4.9195    -2.1616 C.ar    
  23 C23           -1.8566     5.9002    -1.8944 C.ar    
  24 C24           -3.4989     2.5226    -2.2642 C.3     
  25 C25            0.4095     6.5985    -1.1301 C.2     
  26 C26            1.2197     8.6972    -0.9672 C.ar    
  27 C27            2.3666     8.0286    -0.5195 C.ar    
  28 C28            1.2625    10.1085    -1.0366 C.ar    
  29 C29            2.4191    10.7559    -0.6643 C.ar    
  30 C30            3.5100    10.0179    -0.2315 C.ar    
  31 H31           -2.5502     0.7144     5.9287 H       
  32 H32           -4.2580     0.2403     5.7380 H       
  33 H33           -4.6559     2.5161     4.6482 H       
  34 H34           -4.2298     2.5861     6.3777 H       
  35 H35           -2.7450    -0.5200     3.8500 H       
  36 H36           -4.1269     0.4710     3.3337 H       
  37 H37           -2.9574     4.2253     4.9189 H       
  38 H38           -1.9294     3.1246     5.8624 H       
  39 H39           -1.7918     0.0949     1.6562 H       
  40 H40           -0.9297     4.5474     3.5438 H       
  41 H41            0.1929     3.8602     1.4695 H       
  42 H42           -1.2527     1.2080    -1.9169 H       
  43 H43            0.7064     3.9282    -0.8644 H       
  44 H44           -3.7703     5.1936    -2.5222 H       
  45 H45           -2.1071     6.9397    -2.0459 H       
  46 H46           -4.0856     2.3247    -1.3671 H       
  47 H47           -4.1586     2.8641    -3.0618 H       
  48 H48           -2.9937     1.6087    -2.5768 H       
  49 H49            0.4037    10.6687    -1.3758 H       
  50 H50            2.4762    11.8335    -0.7089 H       
  51 H51            4.4161    10.5280     0.0607 H       
@<TRIPOS>BOND
   1    1    3 2
   2    1    4 2
   3    1    5 am
   4    1   15 1
   5    2   25 1
   6    2   27 1
   7    5   18 1
   8    5   42 1
   9    6   25 2
  10    6   26 1
  11    7   27 ar
  12    7   30 ar
  13    8    9 1
  14    8   10 1
  15    8   31 1
  16    8   32 1
  17    9   11 1
  18    9   33 1
  19    9   34 1
  20   10   12 1
  21   10   35 1
  22   10   36 1
  23   11   13 1
  24   11   37 1
  25   11   38 1
  26   12   13 ar
  27   12   14 ar
  28   13   16 ar
  29   14   15 ar
  30   14   39 1
  31   15   17 ar
  32   16   17 ar
  33   16   40 1
  34   17   41 1
  35   18   19 ar
  36   18   20 ar
  37   19   22 ar
  38   19   24 1
  39   20   21 ar
  40   20   43 1
  41   21   23 ar
  42   21   25 1
  43   22   23 ar
  44   22   44 1
  45   23   45 1
  46   24   46 1
  47   24   47 1
  48   24   48 1
  49   26   27 ar
  50   26   28 ar
  51   28   29 ar
  52   28   49 1
  53   29   30 ar
  54   29   50 1
  55   30   51 1

#	End of record

#	Name: 12006056
#	Creating user name:	landrgr1
#	Creation time:	28. 01. 2015 13:52

#	Modifying user name:	landrgr1
#	Modification time:	28. 01. 2015 13:52

#	Program:	corina 3.48 0006  22.01.2010

@<TRIPOS>MOLECULE
12006056
  51   53    0    0    0
SMALL
NO_CHARGES


@<TRIPOS>ATOM
   1 S1            -0.0172     1.4168     0.0098 S.o2    
   2 O2            -1.7444     3.1319    -3.1232 O.3     
   3 O3             0.0021    -0.0041     0.0020 O.2     
   4 O4             1.1617     2.2101     0.0028 O.2     
   5 O5             2.9648     3.1877    -3.8070 O.2     
   6 O6             1.7324     0.3272    -5.2386 O.2     
   7 N7            -0.9002     1.8797    -1.3124 N.am    
   8 N8             0.9525     2.3170    -3.4646 N.am    
   9 N9             3.7447     1.1979    -5.5810 N.am    
  10 N10            6.9436     1.2812    -8.6174 N.ar    
  11 C11           -0.8261     3.1692    -2.0183 C.3     
  12 C12           -1.9225     1.0803    -2.0233 C.3     
  13 C13           -2.7535     2.1625    -2.7571 C.3     
  14 C14            0.5960     3.3930    -2.5364 C.3     
  15 C15           -0.9297     1.8941     1.4396 C.ar    
  16 C16           -1.8430     1.0209     2.0000 C.ar    
  17 C17           -0.7281     3.1397     2.0041 C.ar    
  18 C18            2.1668     2.3062    -4.0494 C.2     
  19 C19           -2.5589     1.3954     3.1217 C.ar    
  20 C20           -1.4439     3.5143     3.1258 C.ar    
  21 C21           -2.3611     2.6430     3.6832 C.ar    
  22 C22            2.5304     1.2087    -4.9963 C.2     
  23 C23           -3.1419     3.0515     4.9057 C.3     
  24 C24            4.1011     0.1219    -6.5092 C.3     
  25 C25            5.5019     0.3423    -7.0196 C.ar    
  26 C26            6.5875    -0.1974    -6.3464 C.ar    
  27 C27            5.7207     1.0844    -8.1645 C.ar    
  28 C28            7.8577     0.0307    -6.8526 C.ar    
  29 C29            7.9989     0.7833    -8.0034 C.ar    
  30 H30           -1.1004     3.9765    -1.3392 H       
  31 H31           -1.4549     0.4023    -2.7373 H       
  32 H32           -2.5432     0.5302    -1.3161 H       
  33 H33           -3.4912     2.6049    -2.0876 H       
  34 H34           -3.2328     1.7480    -3.6440 H       
  35 H35            1.2922     3.3948    -1.6977 H       
  36 H36            0.6478     4.3510    -3.0536 H       
  37 H37            0.3146     1.6124    -3.6583 H       
  38 H38           -1.9975     0.0462     1.5614 H       
  39 H39           -0.0110     3.8202     1.5691 H       
  40 H40           -3.2730     0.7134     3.5591 H       
  41 H41           -1.2861     4.4873     3.5671 H       
  42 H42           -2.5920     2.7625     5.8013 H       
  43 H43           -3.2860     4.1319     4.9006 H       
  44 H44           -4.1125     2.5555     4.8994 H       
  45 H45            4.3826     1.9025    -5.3873 H       
  46 H46            4.0494    -0.8361    -5.9920 H       
  47 H47            3.4050     0.1201    -7.3479 H       
  48 H48            6.4467    -0.7814    -5.4488 H       
  49 H49            4.8805     1.5085    -8.6944 H       
  50 H50            8.7259    -0.3744    -6.3542 H       
  51 H51            8.9850     0.9657    -8.4043 H       
@<TRIPOS>BOND
   1    1    3 2
   2    1    4 2
   3    1    7 am
   4    1   15 1
   5    2   11 1
   6    2   13 1
   7    5   18 2
   8    6   22 2
   9    7   11 1
  10    7   12 1
  11    8   14 1
  12    8   18 am
  13    8   37 1
  14    9   22 am
  15    9   24 1
  16    9   45 1
  17   10   27 ar
  18   10   29 ar
  19   11   14 1
  20   11   30 1
  21   12   13 1
  22   12   31 1
  23   12   32 1
  24   13   33 1
  25   13   34 1
  26   14   35 1
  27   14   36 1
  28   15   16 ar
  29   15   17 ar
  30   16   19 ar
  31   16   38 1
  32   17   20 ar
  33   17   39 1
  34   18   22 1
  35   19   21 ar
  36   19   40 1
  37   20   21 ar
  38   20   41 1
  39   21   23 1
  40   23   42 1
  41   23   43 1
  42   23   44 1
  43   24   25 1
  44   24   46 1
  45   24   47 1
  46   25   26 ar
  47   25   27 ar
  48   26   28 ar
  49   26   48 1
  50   27   49 1
  51   28   29 ar
  52   28   50 1
  53   29   51 1

#	End of record

#	Name: 12006040
#	Creating user name:	landrgr1
#	Creation time:	28. 01. 2015 13:52

#	Modifying user name:	landrgr1
#	Modification time:	28. 01. 2015 13:52

#	Program:	corina 3.48 0006  22.01.2010

@<TRIPOS>MOLECULE
12006040
  37   39    0    0    0
SMALL
NO_CHARGES


@<TRIPOS>ATOM
   1 Cl1           -2.6638    -2.1404     4.9444 Cl      
   2 O2             1.6146     3.0472     0.0024 O.2     
   3 N3            -0.0178     1.4646     0.0101 N.am    
   4 C4             0.0021    -0.0041     0.0020 C.3     
   5 C5             1.4612    -0.3964    -0.0140 C.2     
   6 C6            -0.6667    -0.5398     1.2417 C.ar    
   7 C7             1.2616     1.8833     0.0001 C.2     
   8 C8             2.1669     0.7302    -0.0147 C.2     
   9 C9            -1.1555     2.2775     0.0201 C.ar    
  10 C10            2.0121    -1.7991    -0.0264 C.3     
  11 C11           -1.4865    -1.6499     1.1596 C.ar    
  12 C12           -0.4556     0.0755     2.4614 C.ar    
  13 C13           -1.0229     3.6601     0.0270 C.ar    
  14 C14           -2.4206     1.7043     0.0175 C.ar    
  15 C15           -2.1485     4.4602     0.0364 C.ar    
  16 C16           -3.5422     2.5101     0.0270 C.ar    
  17 C17           -3.4067     3.8863     0.0395 C.ar    
  18 C18           -2.1002    -2.1417     2.2962 C.ar    
  19 C19           -1.0679    -0.4160     3.5989 C.ar    
  20 C20           -1.8934    -1.5232     3.5163 C.ar    
  21 C21           -4.6327     4.7624     0.0508 C.3     
  22 H22           -0.4987    -0.3820    -0.8893 H       
  23 H23            3.2453     0.7875    -0.0244 H       
  24 H24            2.1350    -2.1321    -1.0570 H       
  25 H25            2.9782    -1.8145     0.4781 H       
  26 H26            1.3215    -2.4652     0.4908 H       
  27 H27           -1.6478    -2.1327     0.2070 H       
  28 H28            0.1883     0.9402     2.5257 H       
  29 H29           -0.0406     4.1090     0.0253 H       
  30 H30           -2.5272     0.6296     0.0077 H       
  31 H31           -2.0461     5.5354     0.0418 H       
  32 H32           -4.5262     2.0650     0.0249 H       
  33 H33           -2.7412    -3.0085     2.2318 H       
  34 H34           -0.9029     0.0648     4.5518 H       
  35 H35           -4.9336     4.9796    -0.9741 H       
  36 H36           -5.4432     4.2466     0.5658 H       
  37 H37           -4.4083     5.6948     0.5689 H       
@<TRIPOS>BOND
   1    1   20 1
   2    2    7 2
   3    3    4 1
   4    3    7 am
   5    3    9 1
   6    4    5 1
   7    4    6 1
   8    4   22 1
   9    5    8 2
  10    5   10 1
  11    6   11 ar
  12    6   12 ar
  13    7    8 1
  14    8   23 1
  15    9   13 ar
  16    9   14 ar
  17   10   24 1
  18   10   25 1
  19   10   26 1
  20   11   18 ar
  21   11   27 1
  22   12   19 ar
  23   12   28 1
  24   13   15 ar
  25   13   29 1
  26   14   16 ar
  27   14   30 1
  28   15   17 ar
  29   15   31 1
  30   16   17 ar
  31   16   32 1
  32   17   21 1
  33   18   20 ar
  34   18   33 1
  35   19   20 ar
  36   19   34 1
  37   21   35 1
  38   21   36 1
  39   21   37 1

#	End of record

#	Name: 12006002
#	Creating user name:	landrgr1
#	Creation time:	28. 01. 2015 13:52

#	Modifying user name:	landrgr1
#	Modification time:	28. 01. 2015 13:52

#	Program:	corina 3.48 0006  22.01.2010

@<TRIPOS>MOLECULE
12006002
  51   53    0    0    0
SMALL
NO_CHARGES


@<TRIPOS>ATOM
   1 Cl1            7.2026    -2.8540     2.7776 Cl      
   2 O2            -0.2108     1.4061     0.5269 O.3     
   3 O3             0.9886    -2.6309     0.3510 O.2     
   4 O4            -2.9433    -1.7542     2.8059 O.2     
   5 O5            -1.1433    -0.0341     5.1622 O.2     
   6 N6             1.1993    -0.4648     0.7938 N.am    
   7 N7            -1.1691    -0.4781     2.4205 N.am    
   8 N8            -2.9174    -1.3102     5.5476 N.am    
   9 C9            -0.0982    -0.0042     0.2734 C.3     
  10 C10            1.8709     0.7341     1.3427 C.3     
  11 C11            1.1477     1.8947     0.6145 C.3     
  12 C12           -1.2320    -0.7481     0.9820 C.3     
  13 C13            1.6786    -1.7243     0.7748 C.2     
  14 C14            3.0431    -2.0032     1.2693 C.ar    
  15 C15           -2.0753    -1.0319     3.2503 C.2     
  16 C16            3.6478    -1.1381     2.1832 C.ar    
  17 C17            3.7303    -3.1358     0.8288 C.ar    
  18 C18           -2.0112    -0.7564     4.7178 C.2     
  19 C19           -2.8546    -1.0402     6.9861 C.3     
  20 C20            4.9210    -1.4039     2.6414 C.ar    
  21 C21            5.0030    -3.3911     1.2941 C.ar    
  22 C22           -3.9713    -1.7730     7.6840 C.ar    
  23 C23            5.5998    -2.5263     2.1967 C.ar    
  24 C24           -3.7688    -3.0582     8.1511 C.ar    
  25 C25           -5.1963    -1.1578     7.8622 C.ar    
  26 C26           -6.0199    -3.1171     8.9647 C.ar    
  27 C27           -4.7932    -3.7303     8.7912 C.ar    
  28 C28           -6.2207    -1.8299     8.5023 C.ar    
  29 C29           -7.1368    -3.8500     9.6621 C.3     
  30 H30           -0.1512    -0.1904    -0.7993 H       
  31 H31            1.7212     0.8013     2.4203 H       
  32 H32            2.9332     0.7274     1.0989 H       
  33 H33            1.5683     2.0509    -0.3788 H       
  34 H34            1.1930     2.8103     1.2042 H       
  35 H35           -1.1279    -1.8192     0.8084 H       
  36 H36           -2.1905    -0.4080     0.5899 H       
  37 H37           -0.4754     0.0993     2.7757 H       
  38 H38            3.1196    -0.2624     2.5304 H       
  39 H39            3.2659    -3.8110     0.1253 H       
  40 H40           -1.8961    -1.3804     7.3781 H       
  41 H41           -2.9586     0.0309     7.1596 H       
  42 H42            5.3899    -0.7352     3.3481 H       
  43 H43            5.5356    -4.2669     0.9540 H       
  44 H44           -3.6112    -1.8876     5.1924 H       
  45 H45           -2.8105    -3.5373     8.0155 H       
  46 H46           -5.3530    -0.1519     7.5015 H       
  47 H47           -4.6353    -4.7347     9.1555 H       
  48 H48           -7.1777    -1.3492     8.6418 H       
  49 H49           -7.0900    -3.6498    10.7326 H       
  50 H50           -8.0952    -3.5094     9.2703 H       
  51 H51           -7.0330    -4.9210     9.4880 H       
@<TRIPOS>BOND
   1    1   23 1
   2    2    9 1
   3    2   11 1
   4    3   13 2
   5    4   15 2
   6    5   18 2
   7    6    9 1
   8    6   10 1
   9    6   13 am
  10    7   12 1
  11    7   15 am
  12    7   37 1
  13    8   18 am
  14    8   19 1
  15    8   44 1
  16    9   12 1
  17    9   30 1
  18   10   11 1
  19   10   31 1
  20   10   32 1
  21   11   33 1
  22   11   34 1
  23   12   35 1
  24   12   36 1
  25   13   14 1
  26   14   16 ar
  27   14   17 ar
  28   15   18 1
  29   16   20 ar
  30   16   38 1
  31   17   21 ar
  32   17   39 1
  33   19   22 1
  34   19   40 1
  35   19   41 1
  36   20   23 ar
  37   20   42 1
  38   21   23 ar
  39   21   43 1
  40   22   24 ar
  41   22   25 ar
  42   24   27 ar
  43   24   45 1
  44   25   28 ar
  45   25   46 1
  46   26   27 ar
  47   26   28 ar
  48   26   29 1
  49   27   47 1
  50   28   48 1
  51   29   49 1
  52   29   50 1
  53   29   51 1

#	End of record

#	Name: 12005978
#	Creating user name:	landrgr1
#	Creation time:	28. 01. 2015 13:52

#	Modifying user name:	landrgr1
#	Modification time:	28. 01. 2015 13:52

#	Program:	corina 3.48 0006  22.01.2010

@<TRIPOS>MOLECULE
12005978
  71   74    0    0    0
SMALL
NO_CHARGES


@<TRIPOS>ATOM
   1 O1             0.1188     1.1954    -0.1571 O.3     
   2 O2            -6.4817     3.9311     6.3341 O.3     
   3 O3            -3.6010    -1.4860    -3.3665 O.2     
   4 O4            -5.4888    -3.2196    -1.0902 O.2     
   5 N5            -2.0669    -0.3959     0.9496 N.3     
   6 N6            -2.9881     1.6401     2.7135 N.3     
   7 N7            -3.0782    -1.8480    -1.2404 N.am    
   8 N8            -6.0116    -2.8576    -3.2163 N.am    
   9 C9            -1.1386    -1.0046    -0.0124 C.3     
  10 C10           -2.6247     0.8573     0.4225 C.3     
  11 C11           -1.4110    -0.1730     2.2457 C.3     
  12 C12           -3.6440     1.4172     1.4175 C.3     
  13 C13           -2.4303     0.3869     3.2407 C.3     
  14 C14           -1.8185    -1.1129    -1.3788 C.3     
  15 C15            0.0950    -0.1472    -0.1318 C.2     
  16 C16           -3.8724     2.2200     3.6300 C.ar    
  17 C17           -9.2742    -5.8386    -4.4382 C.3     
  18 C18          -10.5442    -6.4619    -3.8551 C.3     
  19 C19            1.3588    -0.5967    -0.2314 C.2     
  20 C20           -9.3080    -4.3473    -4.2743 C.2     
  21 C21          -11.7561    -5.7026    -4.4099 C.3     
  22 C22          -11.7395    -4.2823    -3.8406 C.3     
  23 C23           -3.4449     2.5120     4.9185 C.ar    
  24 C24           -5.1763     2.5091     3.2497 C.ar    
  25 C25           -8.0122    -3.5912    -4.4166 C.3     
  26 C26          -10.3810    -3.6699    -4.0187 C.2     
  27 C27            2.1925     0.5416    -0.3221 C.2     
  28 C28           -7.2712    -3.5926    -3.0780 C.3     
  29 C29           -3.9024    -1.9779    -2.2989 C.2     
  30 C30            1.3882     1.6186    -0.2724 C.2     
  31 C31           -4.3183     3.0848     5.8222 C.ar    
  32 C32           -6.0483     3.0819     4.1547 C.ar    
  33 C33           -5.6221     3.3679     5.4433 C.ar    
  34 C34           -5.1874    -2.7277    -2.1578 C.2     
  35 C35           -7.8092     4.1957     5.8763 C.3     
  36 H36           -0.8575    -1.9994     0.3334 H       
  37 H37           -1.8220     1.5805     0.2785 H       
  38 H38           -3.1159     0.6640    -0.5312 H       
  39 H39           -1.0172    -1.1175     2.6211 H       
  40 H40           -0.5944     0.5385     2.1224 H       
  41 H41           -4.4605     0.7058     1.5408 H       
  42 H42           -4.0378     2.3617     1.0420 H       
  43 H43           -1.9391     0.5802     4.1944 H       
  44 H44           -3.2330    -0.3363     3.3846 H       
  45 H45           -1.1629    -1.6425    -2.0699 H       
  46 H46           -2.0214    -0.1136    -1.7639 H       
  47 H47           -3.3191    -2.2411    -0.3870 H       
  48 H48           -8.4037    -6.2395    -3.9189 H       
  49 H49           -9.2049    -6.0841    -5.4980 H       
  50 H50          -10.6045    -7.5107    -4.1458 H       
  51 H51          -10.5268    -6.3802    -2.7683 H       
  52 H52            1.6760    -1.6290    -0.2400 H       
  53 H53          -11.6966    -5.6621    -5.4975 H       
  54 H54          -12.6740    -6.2073    -4.1087 H       
  55 H55          -12.4803    -3.6756    -4.3614 H       
  56 H56          -11.9844    -4.3157    -2.7790 H       
  57 H57           -2.4300     2.2909     5.2140 H       
  58 H58           -5.5083     2.2865     2.2464 H       
  59 H59           -7.3932    -4.0706    -5.1750 H       
  60 H60           -8.2218    -2.5639    -4.7148 H       
  61 H61          -10.2932    -2.5974    -3.9277 H       
  62 H62            3.2686     0.5456    -0.4133 H       
  63 H63           -7.0617    -4.6199    -2.7798 H       
  64 H64           -7.8902    -3.1132    -2.3196 H       
  65 H65            1.7088     2.6490    -0.3175 H       
  66 H66           -3.9860     3.3119     6.8244 H       
  67 H67           -7.0624     3.3068     3.8591 H       
  68 H68           -5.7706    -2.4644    -4.0697 H       
  69 H69           -8.3893     4.6437     6.6831 H       
  70 H70           -7.7719     4.8827     5.0308 H       
  71 H71           -8.2792     3.2626     5.5656 H       
@<TRIPOS>BOND
   1    1   15 1
   2    1   30 1
   3    2   33 1
   4    2   35 1
   5    3   29 2
   6    4   34 2
   7    5    9 1
   8    5   10 1
   9    5   11 1
  10    6   12 1
  11    6   13 1
  12    6   16 1
  13    7   14 1
  14    7   29 am
  15    7   47 1
  16    8   28 1
  17    8   34 am
  18    8   68 1
  19    9   14 1
  20    9   15 1
  21    9   36 1
  22   10   12 1
  23   10   37 1
  24   10   38 1
  25   11   13 1
  26   11   39 1
  27   11   40 1
  28   12   41 1
  29   12   42 1
  30   13   43 1
  31   13   44 1
  32   14   45 1
  33   14   46 1
  34   15   19 2
  35   16   23 ar
  36   16   24 ar
  37   17   18 1
  38   17   20 1
  39   17   48 1
  40   17   49 1
  41   18   21 1
  42   18   50 1
  43   18   51 1
  44   19   27 1
  45   19   52 1
  46   20   25 1
  47   20   26 2
  48   21   22 1
  49   21   53 1
  50   21   54 1
  51   22   26 1
  52   22   55 1
  53   22   56 1
  54   23   31 ar
  55   23   57 1
  56   24   32 ar
  57   24   58 1
  58   25   28 1
  59   25   59 1
  60   25   60 1
  61   26   61 1
  62   27   30 2
  63   27   62 1
  64   28   63 1
  65   28   64 1
  66   29   34 1
  67   30   65 1
  68   31   33 ar
  69   31   66 1
  70   32   33 ar
  71   32   67 1
  72   35   69 1
  73   35   70 1
  74   35   71 1

#	End of record

#	Name: 12005962
#	Creating user name:	landrgr1
#	Creation time:	28. 01. 2015 13:52

#	Modifying user name:	landrgr1
#	Modification time:	28. 01. 2015 13:52

#	Program:	corina 3.48 0006  22.01.2010

@<TRIPOS>MOLECULE
12005962
  39   42    0    0    0
SMALL
NO_CHARGES


@<TRIPOS>ATOM
   1 S1            -0.0218     1.7577     0.0117 S.3     
   2 O2             2.8811    10.1731     0.0311 O.3     
   3 O3             0.1024    10.3369     0.0492 O.3     
   4 O4             3.8345     5.2469    -0.0076 O.2     
   5 N5             2.2103     0.5972    -0.0158 N.2     
   6 N6             2.4990     2.9453    -0.0064 N.pl3   
   7 N7             1.8757     4.1999     0.0063 N.am    
   8 C8             2.1166     9.0465     0.0294 C.ar    
   9 C9             0.7265     9.1289     0.0407 C.ar    
  10 C10            2.2278    11.3945    -0.3309 C.3     
  11 C11            0.8946    11.4684     0.4257 C.3     
  12 C12            1.9644     6.6446     0.0183 C.ar    
  13 C13            1.3345    -0.4277    -0.0130 C.ar    
  14 C14            2.7350     7.8096     0.0168 C.ar    
  15 C15            0.0021    -0.0041     0.0020 C.ar    
  16 C16            1.5974    -1.8135    -0.0225 C.ar    
  17 C17           -0.0396     7.9690     0.0430 C.ar    
  18 C18            0.5703     6.7342     0.0315 C.ar    
  19 C19            1.7357     1.7956    -0.0049 C.2     
  20 C20            2.6211     5.3228     0.0048 C.2     
  21 C21           -1.0332    -0.9348     0.0065 C.ar    
  22 C22            0.5645    -2.7172    -0.0187 C.ar    
  23 C23           -0.7526    -2.2835    -0.0038 C.ar    
  24 C24            3.0219    -2.3050    -0.0392 C.3     
  25 H25            2.8546    12.2425    -0.0550 H       
  26 H26            2.0422    11.4078    -1.4049 H       
  27 H27            0.3720    12.3875     0.1607 H       
  28 H28            1.0796    11.4466     1.4996 H       
  29 H29            3.8129     7.7445     0.0053 H       
  30 H30           -1.1174     8.0363     0.0541 H       
  31 H31           -0.0288     5.8357     0.0339 H       
  32 H32           -2.0594    -0.5985     0.0185 H       
  33 H33            0.7793    -3.7755    -0.0262 H       
  34 H34           -1.5581    -3.0029     0.0000 H       
  35 H35            3.3757    -2.4286     0.9843 H       
  36 H36            3.0699    -3.2623    -0.5583 H       
  37 H37            3.6505    -1.5797    -0.5558 H       
  38 H38            3.4670     2.8847    -0.0163 H       
  39 H39            0.9076     4.2605     0.0162 H       
@<TRIPOS>BOND
   1    1   15 1
   2    1   19 1
   3    2    8 1
   4    2   10 1
   5    3    9 1
   6    3   11 1
   7    4   20 2
   8    5   13 1
   9    5   19 2
  10    6    7 1
  11    6   19 1
  12    6   38 1
  13    7   20 am
  14    7   39 1
  15    8    9 ar
  16    8   14 ar
  17    9   17 ar
  18   10   11 1
  19   10   25 1
  20   10   26 1
  21   11   27 1
  22   11   28 1
  23   12   14 ar
  24   12   18 ar
  25   12   20 1
  26   13   15 ar
  27   13   16 ar
  28   14   29 1
  29   15   21 ar
  30   16   22 ar
  31   16   24 1
  32   17   18 ar
  33   17   30 1
  34   18   31 1
  35   21   23 ar
  36   21   32 1
  37   22   23 ar
  38   22   33 1
  39   23   34 1
  40   24   35 1
  41   24   36 1
  42   24   37 1

#	End of record

#	Name: 12005953
#	Creating user name:	landrgr1
#	Creation time:	28. 01. 2015 13:52

#	Modifying user name:	landrgr1
#	Modification time:	28. 01. 2015 13:52

#	Program:	corina 3.48 0006  22.01.2010

@<TRIPOS>MOLECULE
12005953
  67   70    0    0    0
SMALL
NO_CHARGES


@<TRIPOS>ATOM
   1 S1            -0.0218     1.7546     0.0117 S.3     
   2 S2            -2.7299    -2.3239    -3.8519 S.2     
   3 N3            -2.2287    -0.3238     0.9110 N.3     
   4 N4            -4.0797    -0.3814     3.0734 N.3     
   5 N5            -0.7452    -1.4297    -2.3300 N.am    
   6 N6            -0.1201    -2.4712    -4.3234 N.am    
   7 C7            -1.2174    -0.8895     0.0081 C.3     
   8 C8            -1.7565    -0.3329     2.3026 C.3     
   9 C9            -3.5057    -1.0404     0.7865 C.3     
  10 C10           -2.8027     0.3352     3.1979 C.3     
  11 C11           -4.5519    -0.3723     1.6818 C.3     
  12 C12           -1.7902    -0.9783    -1.4078 C.3     
  13 C13            0.0021    -0.0041     0.0020 C.2     
  14 C14           -5.0910     0.1843     3.9762 C.3     
  15 C15           -2.2930     0.4000    -1.8419 C.3     
  16 C16           -6.4400    -0.4034     3.6507 C.ar    
  17 C17            1.2646    -0.4342    -0.0123 C.2     
  18 C18           -1.0815    -2.0559    -3.4750 C.2     
  19 C19            2.2216     0.5659    -0.0161 C.2     
  20 C20            1.7362     1.8083    -0.0048 C.2     
  21 C21           -6.8600    -1.5604     4.2800 C.ar    
  22 C22           -7.2598     0.2175     2.7269 C.ar    
  23 C23           -8.0973    -2.0995     3.9814 C.ar    
  24 C24           -8.4971    -0.3216     2.4283 C.ar    
  25 C25           -0.4856    -3.1519    -5.5681 C.3     
  26 C26           -8.9149    -1.4814     3.0538 C.ar    
  27 C27            0.7830    -3.5151    -6.3423 C.3     
  28 C28            0.4070    -4.2154    -7.6227 C.ar    
  29 C29            0.1922    -3.4816    -8.7744 C.ar    
  30 C30            0.2825    -5.5919    -7.6468 C.ar    
  31 C31           -0.1528    -4.1239    -9.9488 C.ar    
  32 C32           -0.0624    -6.2342    -8.8213 C.ar    
  33 C33           -0.2824    -5.5000    -9.9717 C.ar    
  34 H34           -0.9408    -1.8864     0.3514 H       
  35 H35           -1.6032    -1.3619     2.6278 H       
  36 H36           -0.8164     0.2144     2.3712 H       
  37 H37           -3.8408    -1.0089    -0.2503 H       
  38 H38           -3.3722    -2.0774     1.0945 H       
  39 H39           -2.9362     1.3722     2.8898 H       
  40 H40           -2.4676     0.3037     4.2346 H       
  41 H41           -5.4920    -0.9196     1.6132 H       
  42 H42           -4.7052     0.6566     1.3565 H       
  43 H43           -2.6177    -1.6876    -1.4211 H       
  44 H44           -4.8307    -0.0530     5.0077 H       
  45 H45           -5.1261     1.2664     3.8500 H       
  46 H46           -3.0705     0.7358    -1.1558 H       
  47 H47           -1.4655     1.1093    -1.8286 H       
  48 H48           -2.7011     0.3367    -2.8507 H       
  49 H49            0.1887    -1.2779    -2.1164 H       
  50 H50            1.5208    -1.4834    -0.0201 H       
  51 H51            3.2810     0.3563    -0.0270 H       
  52 H52            2.3315     2.7094    -0.0060 H       
  53 H53           -6.2212    -2.0432     5.0047 H       
  54 H54           -6.9336     1.1240     2.2388 H       
  55 H55            0.8138    -2.3194    -4.1099 H       
  56 H56           -8.4252    -3.0037     4.4726 H       
  57 H57           -9.1377     0.1637     1.7069 H       
  58 H58           -1.0420    -4.0600    -5.3358 H       
  59 H59           -1.1051    -2.4915    -6.1750 H       
  60 H60           -9.8815    -1.9028     2.8202 H       
  61 H61            1.3394    -2.6071    -6.5747 H       
  62 H62            1.4025    -4.1755    -5.7354 H       
  63 H63            0.2934    -2.4065    -8.7565 H       
  64 H64            0.4551    -6.1655    -6.7482 H       
  65 H65           -0.3214    -3.5506   -10.8484 H       
  66 H66           -0.1593    -7.3097    -8.8402 H       
  67 H67           -0.5522    -6.0018   -10.8892 H       
@<TRIPOS>BOND
   1    1   13 1
   2    1   20 1
   3    2   18 2
   4    3    7 1
   5    3    8 1
   6    3    9 1
   7    4   10 1
   8    4   11 1
   9    4   14 1
  10    5   12 1
  11    5   18 am
  12    5   49 1
  13    6   18 am
  14    6   25 1
  15    6   55 1
  16    7   12 1
  17    7   13 1
  18    7   34 1
  19    8   10 1
  20    8   35 1
  21    8   36 1
  22    9   11 1
  23    9   37 1
  24    9   38 1
  25   10   39 1
  26   10   40 1
  27   11   41 1
  28   11   42 1
  29   12   15 1
  30   12   43 1
  31   13   17 2
  32   14   16 1
  33   14   44 1
  34   14   45 1
  35   15   46 1
  36   15   47 1
  37   15   48 1
  38   16   21 ar
  39   16   22 ar
  40   17   19 1
  41   17   50 1
  42   19   20 2
  43   19   51 1
  44   20   52 1
  45   21   23 ar
  46   21   53 1
  47   22   24 ar
  48   22   54 1
  49   23   26 ar
  50   23   56 1
  51   24   26 ar
  52   24   57 1
  53   25   27 1
  54   25   58 1
  55   25   59 1
  56   26   60 1
  57   27   28 1
  58   27   61 1
  59   27   62 1
  60   28   29 ar
  61   28   30 ar
  62   29   31 ar
  63   29   63 1
  64   30   32 ar
  65   30   64 1
  66   31   33 ar
  67   31   65 1
  68   32   33 ar
  69   32   66 1
  70   33   67 1

#	End of record

#	Name: 12005938
#	Creating user name:	landrgr1
#	Creation time:	28. 01. 2015 13:52

#	Modifying user name:	landrgr1
#	Modification time:	28. 01. 2015 13:52

#	Program:	corina 3.48 0006  22.01.2010

@<TRIPOS>MOLECULE
12005938
  59   62    0    0    0
SMALL
NO_CHARGES


@<TRIPOS>ATOM
   1 F1            -6.4747     3.9263     6.3268 F       
   2 O2             0.1188     1.1954    -0.1571 O.3     
   3 O3            -3.6010    -1.4860    -3.3665 O.2     
   4 O4            -5.4888    -3.2196    -1.0902 O.2     
   5 N5            -2.0669    -0.3959     0.9496 N.3     
   6 N6            -2.9881     1.6401     2.7135 N.3     
   7 N7            -3.0782    -1.8480    -1.2404 N.am    
   8 N8            -6.0116    -2.8576    -3.2163 N.am    
   9 N9            -9.5376    -2.5744    -5.8519 N.ar    
  10 C10           -2.6247     0.8573     0.4225 C.3     
  11 C11           -1.4110    -0.1730     2.2457 C.3     
  12 C12           -1.1386    -1.0046    -0.0124 C.3     
  13 C13           -3.6440     1.4172     1.4175 C.3     
  14 C14           -2.4303     0.3869     3.2407 C.3     
  15 C15           -1.8185    -1.1129    -1.3788 C.3     
  16 C16            0.0950    -0.1472    -0.1318 C.2     
  17 C17           -3.8717     2.2195     3.6293 C.ar    
  18 C18            1.3588    -0.5967    -0.2314 C.2     
  19 C19           -3.4448     2.5118     4.9181 C.ar    
  20 C20           -5.1758     2.5089     3.2496 C.ar    
  21 C21            2.1925     0.5416    -0.3221 C.2     
  22 C22            1.3882     1.6186    -0.2724 C.2     
  23 C23           -3.9024    -1.9779    -2.2989 C.2     
  24 C24           -4.3194     3.0841     5.8210 C.ar    
  25 C25           -6.0470     3.0812     4.1558 C.ar    
  26 C26           -5.6209     3.3665     5.4420 C.ar    
  27 C27           -5.1874    -2.7277    -2.1578 C.2     
  28 C28           -7.2712    -3.5926    -3.0780 C.3     
  29 C29           -8.0010    -3.5912    -4.3965 C.ar    
  30 C30           -7.7844    -4.6028    -5.3200 C.ar    
  31 C31           -8.8949    -2.5822    -4.7003 C.ar    
  32 C32           -8.4782    -4.5608    -6.5194 C.ar    
  33 C33           -9.3566    -3.5195    -6.7534 C.ar    
  34 H34           -1.8220     1.5805     0.2785 H       
  35 H35           -3.1159     0.6640    -0.5312 H       
  36 H36           -1.0172    -1.1175     2.6211 H       
  37 H37           -0.5944     0.5385     2.1224 H       
  38 H38           -0.8575    -1.9994     0.3334 H       
  39 H39           -4.4605     0.7058     1.5408 H       
  40 H40           -4.0378     2.3617     1.0420 H       
  41 H41           -1.9391     0.5802     4.1944 H       
  42 H42           -3.2330    -0.3363     3.3846 H       
  43 H43           -1.1629    -1.6425    -2.0699 H       
  44 H44           -2.0214    -0.1136    -1.7639 H       
  45 H45           -3.3191    -2.2411    -0.3870 H       
  46 H46            1.6760    -1.6290    -0.2400 H       
  47 H47           -2.4299     2.2914     5.2142 H       
  48 H48           -5.5085     2.2868     2.2464 H       
  49 H49            3.2686     0.5456    -0.4133 H       
  50 H50            1.7088     2.6490    -0.3175 H       
  51 H51           -3.9880     3.3113     6.8235 H       
  52 H52           -7.0613     3.3064     3.8610 H       
  53 H53           -5.7706    -2.4644    -4.0697 H       
  54 H54           -7.0617    -4.6199    -2.7798 H       
  55 H55           -7.8902    -3.1132    -2.3196 H       
  56 H56           -7.0914    -5.4040    -5.1099 H       
  57 H57           -9.0689    -1.7905    -3.9866 H       
  58 H58           -8.3342    -5.3320    -7.2617 H       
  59 H59           -9.9009    -3.4795    -7.6853 H       
@<TRIPOS>BOND
   1    1   26 1
   2    2   16 1
   3    2   22 1
   4    3   23 2
   5    4   27 2
   6    5   10 1
   7    5   11 1
   8    5   12 1
   9    6   13 1
  10    6   14 1
  11    6   17 1
  12    7   15 1
  13    7   23 am
  14    7   45 1
  15    8   27 am
  16    8   28 1
  17    8   53 1
  18    9   31 ar
  19    9   33 ar
  20   10   13 1
  21   10   34 1
  22   10   35 1
  23   11   14 1
  24   11   36 1
  25   11   37 1
  26   12   15 1
  27   12   16 1
  28   12   38 1
  29   13   39 1
  30   13   40 1
  31   14   41 1
  32   14   42 1
  33   15   43 1
  34   15   44 1
  35   16   18 2
  36   17   19 ar
  37   17   20 ar
  38   18   21 1
  39   18   46 1
  40   19   24 ar
  41   19   47 1
  42   20   25 ar
  43   20   48 1
  44   21   22 2
  45   21   49 1
  46   22   50 1
  47   23   27 1
  48   24   26 ar
  49   24   51 1
  50   25   26 ar
  51   25   52 1
  52   28   29 1
  53   28   54 1
  54   28   55 1
  55   29   30 ar
  56   29   31 ar
  57   30   32 ar
  58   30   56 1
  59   31   57 1
  60   32   33 ar
  61   32   58 1
  62   33   59 1

#	End of record

#	Name: 12005928
#	Creating user name:	landrgr1
#	Creation time:	28. 01. 2015 13:52

#	Modifying user name:	landrgr1
#	Modification time:	28. 01. 2015 13:52

#	Program:	corina 3.48 0006  22.01.2010

@<TRIPOS>MOLECULE
12005928
  50   52    0    0    0
SMALL
NO_CHARGES


@<TRIPOS>ATOM
   1 S1             0.0703     1.6797     0.0804 S.3     
   2 S2            -2.5986    -1.5423    -4.5446 S.2     
   3 O3            -5.0605     0.9425     1.8488 O.3     
   4 N4            -2.8056     0.3791     0.2723 N.3     
   5 N5            -0.9136    -1.2248    -2.5161 N.am    
   6 N6            -0.1201    -2.4712    -4.3234 N.am    
   7 C7            -1.8048    -0.4906    -0.3602 C.3     
   8 C8            -1.9840    -0.4536    -1.8792 C.3     
   9 C9            -2.7412     0.2775     1.7375 C.3     
  10 C10           -4.1576     0.0660    -0.2128 C.3     
  11 C11           -0.4225    -0.0065    -0.0054 C.2     
  12 C12           -3.7571     1.2419     2.3556 C.3     
  13 C13           -5.1592     1.0325     0.4249 C.3     
  14 C14           -1.9260     0.9963    -2.3644 C.3     
  15 C15            0.6147    -0.7913     0.2907 C.2     
  16 C16           -1.1048    -1.7617    -3.7375 C.2     
  17 C17            1.7890    -0.1198     0.5844 C.2     
  18 C18            1.7055     1.2102     0.5268 C.2     
  19 C19           -0.3559    -3.1241    -5.5379 C.ar    
  20 C20            0.5844    -3.0572    -6.5581 C.ar    
  21 C21           -1.5279    -3.8451    -5.7242 C.ar    
  22 C22            0.3486    -3.7028    -7.7558 C.ar    
  23 C23            1.8603    -2.2806    -6.3583 C.3     
  24 C24           -1.7578    -4.4886    -6.9247 C.ar    
  25 C25           -0.8224    -4.4154    -7.9402 C.ar    
  26 H26           -1.9345    -1.5125    -0.0039 H       
  27 H27           -2.9493    -0.8863    -2.1419 H       
  28 H28           -2.9755    -0.7424     2.0422 H       
  29 H29           -1.7387     0.5383     2.0768 H       
  30 H30           -4.1890     0.1724    -1.2971 H       
  31 H31           -4.4145    -0.9573     0.0608 H       
  32 H32           -3.4916     2.2664     2.0949 H       
  33 H33           -3.7533     1.1288     3.4397 H       
  34 H34           -6.1695     0.7680     0.1127 H       
  35 H35           -4.9346     2.0509     0.1081 H       
  36 H36           -2.0536     1.0227    -3.4465 H       
  37 H37           -2.7224     1.5702    -1.8905 H       
  38 H38           -0.9606     1.4290    -2.1017 H       
  39 H39           -0.0672    -1.3491    -2.0588 H       
  40 H40            0.5435    -1.8689     0.3009 H       
  41 H41            2.7034    -0.6339     0.8412 H       
  42 H42            2.5178     1.8941     0.7239 H       
  43 H43            0.7521    -2.5292    -3.9030 H       
  44 H44           -2.2588    -3.9030    -4.9312 H       
  45 H45            1.0791    -3.6509    -8.5495 H       
  46 H46            2.6248    -2.9381    -5.9443 H       
  47 H47            2.1997    -1.8867    -7.3162 H       
  48 H48            1.6792    -1.4553    -5.6696 H       
  49 H49           -2.6691    -5.0496    -7.0702 H       
  50 H50           -1.0044    -4.9194    -8.8779 H       
@<TRIPOS>BOND
   1    1   11 1
   2    1   18 1
   3    2   16 2
   4    3   12 1
   5    3   13 1
   6    4    7 1
   7    4    9 1
   8    4   10 1
   9    5    8 1
  10    5   16 am
  11    5   39 1
  12    6   16 am
  13    6   19 1
  14    6   43 1
  15    7    8 1
  16    7   11 1
  17    7   26 1
  18    8   14 1
  19    8   27 1
  20    9   12 1
  21    9   28 1
  22    9   29 1
  23   10   13 1
  24   10   30 1
  25   10   31 1
  26   11   15 2
  27   12   32 1
  28   12   33 1
  29   13   34 1
  30   13   35 1
  31   14   36 1
  32   14   37 1
  33   14   38 1
  34   15   17 1
  35   15   40 1
  36   17   18 2
  37   17   41 1
  38   18   42 1
  39   19   20 ar
  40   19   21 ar
  41   20   22 ar
  42   20   23 1
  43   21   24 ar
  44   21   44 1
  45   22   25 ar
  46   22   45 1
  47   23   46 1
  48   23   47 1
  49   23   48 1
  50   24   25 ar
  51   24   49 1
  52   25   50 1

#	End of record

#	Name: 12005843
#	Creating user name:	landrgr1
#	Creation time:	28. 01. 2015 13:52

#	Modifying user name:	landrgr1
#	Modification time:	28. 01. 2015 13:52

#	Program:	corina 3.48 0006  22.01.2010

@<TRIPOS>MOLECULE
12005843
  62   64    0    0    0
SMALL
NO_CHARGES


@<TRIPOS>ATOM
   1 S1             0.2362     1.2365    -0.3457 S.o2    
   2 F2            -3.0882    -1.5104     3.6493 F       
   3 O3            -0.6731     3.3915    -3.2671 O.3     
   4 O4             1.0283     0.2334    -0.9667 O.2     
   5 O5             0.7900     2.3716     0.3055 O.2     
   6 O6             2.7800     4.7011    -0.2371 O.2     
   7 O7             4.0425     2.0428    -1.9952 O.2     
   8 N8            -0.7822     1.8184    -1.5146 N.am    
   9 N9             1.6085     3.2714    -1.4651 N.am    
  10 N10            5.2141     3.4725    -0.7672 N.am    
  11 C11           -0.8067     3.2499    -1.8494 C.3     
  12 C12           -1.6860     0.9165    -2.2459 C.3     
  13 C13           -1.5070     1.1724    -3.7477 C.3     
  14 C14           -1.6545     2.6726    -4.0174 C.3     
  15 C15            0.3544     3.9603    -1.1508 C.3     
  16 C16            9.3024     1.6029     0.1348 C.3     
  17 C17           10.3747     0.7751    -0.5770 C.3     
  18 C18           -0.7604     0.4131     0.8516 C.ar    
  19 C19            8.9193     2.7853    -0.7061 C.2     
  20 C20           11.4891     1.7212    -1.0415 C.3     
  21 C21           10.9273     2.6297    -2.1373 C.3     
  22 C22            7.6293     3.4940    -0.3829 C.3     
  23 C23            9.6282     3.2345    -1.6916 C.2     
  24 C24           -1.6944     1.1253     1.5803 C.ar    
  25 C25            6.4682     2.7836    -1.0814 C.3     
  26 C26           -0.6116    -0.9460     1.0575 C.ar    
  27 C27            2.7716     3.7234    -0.9559 C.2     
  28 C28           -2.4765     0.4806     2.5200 C.ar    
  29 C29           -1.8598     2.6055     1.3503 C.3     
  30 C30           -1.3929    -1.5929     1.9958 C.ar    
  31 C31            4.0509     3.0205    -1.2764 C.2     
  32 C32           -2.3244    -0.8791     2.7310 C.ar    
  33 H33           -1.7524     3.6849    -1.5260 H       
  34 H34           -1.4360    -0.1195    -2.0170 H       
  35 H35           -2.7181     1.1182    -1.9590 H       
  36 H36           -0.5161     0.8414    -4.0586 H       
  37 H37           -2.2676     0.6250    -4.3043 H       
  38 H38           -2.6507     2.9991    -3.7190 H       
  39 H39           -1.5124     2.8662    -5.0807 H       
  40 H40            0.1927     3.9471    -0.0730 H       
  41 H41            0.4101     4.9923    -1.4972 H       
  42 H42            8.4230     0.9827     0.3081 H       
  43 H43            9.6909     1.9509     1.0919 H       
  44 H44           10.7846     0.0364     0.1118 H       
  45 H45            9.9371     0.2729    -1.4398 H       
  46 H46           11.8290     2.3272    -0.2017 H       
  47 H47           12.3214     1.1400    -1.4385 H       
  48 H48           11.6422     3.4247    -2.3493 H       
  49 H49           10.7619     2.0447    -3.0420 H       
  50 H50            7.4677     3.4808     0.6950 H       
  51 H51            7.6850     4.5260    -0.7293 H       
  52 H52            9.2619     4.0982    -2.2266 H       
  53 H53            1.6017     2.4898    -2.0396 H       
  54 H54            6.4125     1.7516    -0.7350 H       
  55 H55            6.6298     2.7968    -2.1593 H       
  56 H56            0.1154    -1.5023     0.4844 H       
  57 H57            5.2208     4.2541    -0.1927 H       
  58 H58           -3.2057     1.0374     3.0897 H       
  59 H59           -2.5259     2.7694     0.5033 H       
  60 H60           -2.2854     3.0663     2.2417 H       
  61 H61           -0.8877     3.0513     1.1397 H       
  62 H62           -1.2764    -2.6545     2.1564 H       
@<TRIPOS>BOND
   1    1    4 2
   2    1    5 2
   3    1    8 am
   4    1   18 1
   5    2   32 1
   6    3   11 1
   7    3   14 1
   8    6   27 2
   9    7   31 2
  10    8   11 1
  11    8   12 1
  12    9   15 1
  13    9   27 am
  14    9   53 1
  15   10   25 1
  16   10   31 am
  17   10   57 1
  18   11   15 1
  19   11   33 1
  20   12   13 1
  21   12   34 1
  22   12   35 1
  23   13   14 1
  24   13   36 1
  25   13   37 1
  26   14   38 1
  27   14   39 1
  28   15   40 1
  29   15   41 1
  30   16   17 1
  31   16   19 1
  32   16   42 1
  33   16   43 1
  34   17   20 1
  35   17   44 1
  36   17   45 1
  37   18   24 ar
  38   18   26 ar
  39   19   22 1
  40   19   23 2
  41   20   21 1
  42   20   46 1
  43   20   47 1
  44   21   23 1
  45   21   48 1
  46   21   49 1
  47   22   25 1
  48   22   50 1
  49   22   51 1
  50   23   52 1
  51   24   28 ar
  52   24   29 1
  53   25   54 1
  54   25   55 1
  55   26   30 ar
  56   26   56 1
  57   27   31 1
  58   28   32 ar
  59   28   58 1
  60   29   59 1
  61   29   60 1
  62   29   61 1
  63   30   32 ar
  64   30   62 1

#	End of record

#	Name: 12005819
#	Creating user name:	landrgr1
#	Creation time:	28. 01. 2015 13:52

#	Modifying user name:	landrgr1
#	Modification time:	28. 01. 2015 13:52

#	Program:	corina 3.48 0006  22.01.2010

@<TRIPOS>MOLECULE
12005819
  39   41    0    0    0
SMALL
NO_CHARGES


@<TRIPOS>ATOM
   1 Br1          -10.6509    -3.7404     1.0923 Br      
   2 S2             0.2835     1.1230    -0.9514 S.3     
   3 O3            -1.9503    -0.6571     0.7059 O.3     
   4 O4            -5.2723    -1.9052     0.2022 O.3     
   5 O5            -8.1272    -2.5577     0.3490 O.3     
   6 O6            -3.9419    -2.6006    -2.0960 O.2     
   7 O7            -5.8147    -0.4442    -1.3826 O.2     
   8 N8             2.5695     2.4417    -1.3731 N.ar    
   9 N9             2.7834     0.1780    -0.9449 N.ar    
  10 C10           -1.3174    -1.0033    -0.4208 C.2     
  11 C11            0.1361    -0.6454    -0.5948 C.3     
  12 C12           -1.9593    -1.6678    -1.4028 C.2     
  13 C13           -3.9617    -1.6124    -0.0163 C.2     
  14 C14            3.8795     2.5784    -1.4931 C.ar    
  15 C15            4.0999     0.2465    -1.0521 C.ar    
  16 C16           -3.3264    -1.9995    -1.2288 C.2     
  17 C17            2.0336     1.2596    -1.1034 C.ar    
  18 C18            4.6930     1.4674    -1.3334 C.ar    
  19 C19           -3.2412    -0.9489     0.9151 C.2     
  20 C20            4.4806     3.9258    -1.8003 C.3     
  21 C21            4.9449    -0.9881    -0.8710 C.3     
  22 C22           -7.5943    -1.6412    -0.4866 C.2     
  23 C23           -6.1769    -1.2904    -0.5871 C.2     
  24 C24           -8.6103    -1.0988    -1.2229 C.2     
  25 C25           -9.7925    -1.7241    -0.8015 C.2     
  26 C26           -9.4525    -2.6111     0.1626 C.2     
  27 H27            0.5551    -1.2190    -1.4217 H       
  28 H28            0.6797    -0.8780     0.3209 H       
  29 H29           -1.4396    -1.9429    -2.3087 H       
  30 H30            5.7657     1.5511    -1.4266 H       
  31 H31           -3.7121    -0.6499     1.8399 H       
  32 H32            4.6971     4.4481    -0.8684 H       
  33 H33            5.4035     3.7918    -2.3646 H       
  34 H34            3.7759     4.5120    -2.3901 H       
  35 H35            5.0770    -1.4824    -1.8334 H       
  36 H36            5.9188    -0.7063    -0.4706 H       
  37 H37            4.4502    -1.6686    -0.1779 H       
  38 H38           -8.5199    -0.3361    -1.9823 H       
  39 H39          -10.7875    -1.5331    -1.1755 H       
@<TRIPOS>BOND
   1    1   26 1
   2    2   11 1
   3    2   17 1
   4    3   10 1
   5    3   19 1
   6    4   13 1
   7    4   23 1
   8    5   22 1
   9    5   26 1
  10    6   16 2
  11    7   23 2
  12    8   14 ar
  13    8   17 ar
  14    9   15 ar
  15    9   17 ar
  16   10   11 1
  17   10   12 2
  18   11   27 1
  19   11   28 1
  20   12   16 1
  21   12   29 1
  22   13   16 1
  23   13   19 2
  24   14   18 ar
  25   14   20 1
  26   15   18 ar
  27   15   21 1
  28   18   30 1
  29   19   31 1
  30   20   32 1
  31   20   33 1
  32   20   34 1
  33   21   35 1
  34   21   36 1
  35   21   37 1
  36   22   23 1
  37   22   24 2
  38   24   25 1
  39   24   38 1
  40   25   26 2
  41   25   39 1

#	End of record

#	Name: 12005792
#	Creating user name:	landrgr1
#	Creation time:	28. 01. 2015 13:52

#	Modifying user name:	landrgr1
#	Modification time:	28. 01. 2015 13:52

#	Program:	corina 3.48 0006  22.01.2010

@<TRIPOS>MOLECULE
12005792
  64   68    0    0    0
SMALL
NO_CHARGES


@<TRIPOS>ATOM
   1 S1            -0.2107     1.7646    -0.2086 S.o2    
   2 S2             1.2991     4.0378     9.7419 S.3     
   3 O3            -4.2967     2.7339     5.0130 O.2     
   4 O4            -0.2149     0.3487    -0.3284 O.2     
   5 O5             0.9801     2.5399    -0.1946 O.2     
   6 N6            -2.4869     3.6756     5.8905 N.am    
   7 N7            -1.0616     4.0092     8.2617 N.3     
   8 N8            -1.1303     2.3424    -1.4587 N.am    
   9 N9            -0.9313     3.1114    10.4465 N.2     
  10 C10           -3.2117     4.1112     7.0938 C.3     
  11 C11           -1.0424     3.9416     5.8138 C.3     
  12 C12           -2.4674     3.5877     8.3267 C.3     
  13 C13           -0.3834     3.4247     7.0971 C.3     
  14 C14           -3.1283     3.0444     4.8872 C.2     
  15 C15           -0.3969     3.6961     9.4298 C.2     
  16 C16           -2.4106     2.7296     3.6334 C.ar    
  17 C17           -1.0665     2.1400     1.2852 C.ar    
  18 C18           -2.6476     1.5223     2.9743 C.ar    
  19 C19           -1.4974     3.6409     3.1008 C.ar    
  20 C20           -0.9304     3.7103    -1.9438 C.3     
  21 C21           -1.9746     1.2348     1.8049 C.ar    
  22 C22           -0.8311     3.3410     1.9306 C.ar    
  23 C23           -2.1436     1.4858    -2.0797 C.3     
  24 C24            1.1646     3.3149    11.3431 C.ar    
  25 C25           -0.1498     2.8716    11.5186 C.ar    
  26 C26            0.0121     3.6937    -3.1195 C.ar    
  27 C27           -3.5046     1.7565    -1.4354 C.3     
  28 C28            2.1061     3.1460    12.3545 C.ar    
  29 C29           -0.4914     2.2528    12.7393 C.ar    
  30 C30           -0.4851     3.5582    -4.4022 C.ar    
  31 C31            1.3736     3.8196    -2.9157 C.ar    
  32 C32            1.7497     2.5389    13.5387 C.ar    
  33 C33            0.4497     2.0941    13.7255 C.ar    
  34 C34            0.3795     3.5430    -5.4806 C.ar    
  35 C35            2.2382     3.8043    -3.9942 C.ar    
  36 C36            1.7413     3.6636    -5.2765 C.ar    
  37 H37           -3.2499     5.2001     7.1241 H       
  38 H38           -4.2238     3.7069     7.0781 H       
  39 H39           -0.6202     3.4250     4.9518 H       
  40 H40           -0.8720     5.0142     5.7211 H       
  41 H41           -2.5200     2.4992     8.3484 H       
  42 H42           -2.9271     3.9925     9.2283 H       
  43 H43            0.6682     3.7114     7.1069 H       
  44 H44           -0.4651     2.3385     7.1359 H       
  45 H45           -3.3560     0.8147     3.3791 H       
  46 H46           -1.3131     4.5789     3.6034 H       
  47 H47           -1.8880     4.1301    -2.2517 H       
  48 H48           -0.5059     4.3202    -1.1463 H       
  49 H49           -2.1973     1.7015    -3.1467 H       
  50 H50           -1.8741     0.4398    -1.9335 H       
  51 H51           -2.1540     0.2991     1.2961 H       
  52 H52           -0.1206     4.0432     1.5200 H       
  53 H53           -3.4509     1.5408    -0.3683 H       
  54 H54           -3.7741     2.8025    -1.5815 H       
  55 H55           -4.2586     1.1192    -1.8974 H       
  56 H56            3.1191     3.4915    12.2103 H       
  57 H57           -1.5002     1.9018    12.8989 H       
  58 H58           -1.5491     3.4640    -4.5617 H       
  59 H59            1.7617     3.9302    -1.9140 H       
  60 H60            2.4828     2.4088    14.3211 H       
  61 H61            0.1750     1.6193    14.6559 H       
  62 H62           -0.0090     3.4364    -6.4827 H       
  63 H63            3.3018     3.9031    -3.8350 H       
  64 H64            2.4169     3.6513    -6.1190 H       
@<TRIPOS>BOND
   1    1    4 2
   2    1    5 2
   3    1    8 am
   4    1   17 1
   5    2   15 1
   6    2   24 1
   7    3   14 2
   8    6   10 1
   9    6   11 1
  10    6   14 am
  11    7   12 1
  12    7   13 1
  13    7   15 1
  14    8   20 1
  15    8   23 1
  16    9   15 2
  17    9   25 1
  18   10   12 1
  19   10   37 1
  20   10   38 1
  21   11   13 1
  22   11   39 1
  23   11   40 1
  24   12   41 1
  25   12   42 1
  26   13   43 1
  27   13   44 1
  28   14   16 1
  29   16   18 ar
  30   16   19 ar
  31   17   21 ar
  32   17   22 ar
  33   18   21 ar
  34   18   45 1
  35   19   22 ar
  36   19   46 1
  37   20   26 1
  38   20   47 1
  39   20   48 1
  40   21   51 1
  41   22   52 1
  42   23   27 1
  43   23   49 1
  44   23   50 1
  45   24   25 ar
  46   24   28 ar
  47   25   29 ar
  48   26   30 ar
  49   26   31 ar
  50   27   53 1
  51   27   54 1
  52   27   55 1
  53   28   32 ar
  54   28   56 1
  55   29   33 ar
  56   29   57 1
  57   30   34 ar
  58   30   58 1
  59   31   35 ar
  60   31   59 1
  61   32   33 ar
  62   32   60 1
  63   33   61 1
  64   34   36 ar
  65   34   62 1
  66   35   36 ar
  67   35   63 1
  68   36   64 1

#	End of record

#	Name: 12005781
#	Creating user name:	landrgr1
#	Creation time:	28. 01. 2015 13:52

#	Modifying user name:	landrgr1
#	Modification time:	28. 01. 2015 13:52

#	Program:	corina 3.48 0006  22.01.2010

@<TRIPOS>MOLECULE
12005781
  54   58    0    0    0
SMALL
NO_CHARGES


@<TRIPOS>ATOM
   1 Cl1            0.0000     0.0000     0.0000 Cl      
   2 S2             8.1133    11.5871     5.2542 S.3     
   3 F3            16.2341     5.0000    14.1689 F       
   4 O4             9.7977     9.0283     9.2785 O.2     
   5 N5            13.9511     8.1429     8.9329 N.pl3   
   6 N6            12.4439     9.6437     9.3250 N.pl3   
   7 N7             9.2885    10.7092     7.9225 N.am    
   8 C8            13.1388     9.0650     8.3767 C.cat   
   9 C9            13.3327     9.0834     6.8731 C.3     
  10 C10           14.7609     7.4628     7.9120 C.3     
  11 C11           14.0617     7.7557     6.5672 C.3     
  12 C12           13.7287     8.1728    10.2938 C.2     
  13 C13           12.7819     9.1243    10.5095 C.2     
  14 C14           11.4532    10.7032     9.1193 C.3     
  15 C15           14.3902     7.3345    11.3173 C.ar    
  16 C16           10.1209    10.0860     8.7799 C.2     
  17 C17           13.9843     7.4065    12.6504 C.ar    
  18 C18           15.4183     6.4647    10.9521 C.ar    
  19 C19            9.6270    11.9968     7.5079 C.ar    
  20 C20            8.1472    10.0226     7.5101 C.ar    
  21 C21            9.1636    12.5279     6.3081 C.ar    
  22 C22            7.5061    10.3167     6.3105 C.ar    
  23 C23           14.6046     6.6226    13.6009 C.ar    
  24 C24           16.0319     5.6851    11.9105 C.ar    
  25 C25           10.4523    12.7665     8.3207 C.ar    
  26 C26            7.6407     9.0157     8.3249 C.ar    
  27 C27           15.6293     5.7650    13.2340 C.ar    
  28 C28            9.5296    13.8143     5.9320 C.ar    
  29 C29            6.3737     9.6040     5.9368 C.ar    
  30 C30           10.8116    14.0450     7.9399 C.ar    
  31 C31            6.5140     8.3116     7.9463 C.ar    
  32 C32           10.3518    14.5694     6.7466 C.ar    
  33 C33            5.8804     8.6041     6.7533 C.ar    
  34 H34           12.3690     9.1151     6.3648 H       
  35 H35           13.9484     9.9331     6.5785 H       
  36 H36           15.7742     7.8645     7.9053 H       
  37 H37           14.7814     6.3894     8.1006 H       
  38 H38           13.3501     6.9684     6.3181 H       
  39 H39           14.7916     7.8866     5.7684 H       
  40 H40           12.3719     9.4072    11.4678 H       
  41 H41           11.3585    11.2939    10.0304 H       
  42 H42           11.7745    11.3470     8.3006 H       
  43 H43           13.1863     8.0751    12.9376 H       
  44 H44           15.7329     6.4016     9.9209 H       
  45 H45           14.2913     6.6776    14.6330 H       
  46 H46           16.8276     5.0113    11.6289 H       
  47 H47           10.8146    12.3624     9.2545 H       
  48 H48            8.1312     8.7825     9.2585 H       
  49 H49            9.1707    14.2253     5.0000 H       
  50 H50            5.8775     9.8318     5.0049 H       
  51 H51           11.4527    14.6365     8.5766 H       
  52 H52            6.1269     7.5310     8.5845 H       
  53 H53           10.6352    15.5687     6.4507 H       
  54 H54            5.0000     8.0518     6.4595 H       
@<TRIPOS>BOND
   1    2   21 1
   2    2   22 1
   3    3   27 1
   4    4   16 2
   5    5    8 ar
   6    5   10 1
   7    5   12 1
   8    6    8 ar
   9    6   13 1
  10    6   14 1
  11    7   16 am
  12    7   19 1
  13    7   20 1
  14    8    9 1
  15    9   11 1
  16    9   34 1
  17    9   35 1
  18   10   11 1
  19   10   36 1
  20   10   37 1
  21   11   38 1
  22   11   39 1
  23   12   13 2
  24   12   15 1
  25   13   40 1
  26   14   16 1
  27   14   41 1
  28   14   42 1
  29   15   17 ar
  30   15   18 ar
  31   17   23 ar
  32   17   43 1
  33   18   24 ar
  34   18   44 1
  35   19   21 ar
  36   19   25 ar
  37   20   22 ar
  38   20   26 ar
  39   21   28 ar
  40   22   29 ar
  41   23   27 ar
  42   23   45 1
  43   24   27 ar
  44   24   46 1
  45   25   30 ar
  46   25   47 1
  47   26   31 ar
  48   26   48 1
  49   28   32 ar
  50   28   49 1
  51   29   33 ar
  52   29   50 1
  53   30   32 ar
  54   30   51 1
  55   31   33 ar
  56   31   52 1
  57   32   53 1
  58   33   54 1

#	End of record

#	Name: 12005750
#	Creating user name:	landrgr1
#	Creation time:	28. 01. 2015 13:52

#	Modifying user name:	landrgr1
#	Modification time:	28. 01. 2015 13:52

#	Program:	corina 3.48 0006  22.01.2010

@<TRIPOS>MOLECULE
12005750
  42   44    0    0    0
SMALL
NO_CHARGES


@<TRIPOS>ATOM
   1 O1             2.6292    -6.7625    -0.0575 O.2     
   2 O2            -0.0164     1.3563     0.0095 O.3     
   3 O3            -2.2792    -0.1285     0.0236 O.2     
   4 N4             5.9989    -9.1103    -0.1020 N.pl3   
   5 N5             6.7414    -9.5275     1.0126 N.2     
   6 N6             7.8079   -10.1276     0.6162 N.2     
   7 N7             3.6586    -4.7972    -0.0576 N.am    
   8 N8             2.4380    -4.1098    -0.0423 N.pl3   
   9 C9             4.7225    -8.3915    -0.0860 C.3     
  10 C10            6.7077    -9.5036    -1.2123 C.ar    
  11 C11            4.9860    -6.8844    -0.0810 C.3     
  12 C12            7.8564   -10.1555    -0.7308 C.ar    
  13 C13            6.5005    -9.3853    -2.5823 C.ar    
  14 C14            3.6730    -6.1449    -0.0646 C.2     
  15 C15            8.7820   -10.6761    -1.6443 C.ar    
  16 C16            7.4279    -9.9016    -3.4593 C.ar    
  17 C17            8.5598   -10.5514    -2.9845 C.ar    
  18 C18            1.2048    -2.0816    -0.0202 C.2     
  19 C19            2.4237    -2.7681    -0.0354 C.2     
  20 C20            1.1886    -0.6681    -0.0129 C.2     
  21 C21           -0.0108    -2.7996    -0.0178 C.2     
  22 C22            0.0021    -0.0041     0.0020 C.2     
  23 C23           -1.1937    -2.1328    -0.0029 C.2     
  24 C24           -1.2109    -0.7269     0.0102 C.2     
  25 C25            1.2479     2.0223     0.0010 C.3     
  26 H26            4.1451    -8.6564    -0.9718 H       
  27 H27            4.1624    -8.6654     0.8080 H       
  28 H28            5.5633    -6.6194     0.8048 H       
  29 H29            5.5460    -6.6104    -0.9751 H       
  30 H30            5.6162    -8.8911    -2.9566 H       
  31 H31            9.6708   -11.1755    -1.2880 H       
  32 H32            7.2685    -9.8106    -4.5236 H       
  33 H33            9.2768   -10.9547    -3.6843 H       
  34 H34            4.4934    -4.3033    -0.0632 H       
  35 H35            1.6032    -4.6037    -0.0367 H       
  36 H36            3.3531    -2.2181    -0.0417 H       
  37 H37            2.1171    -0.1165    -0.0188 H       
  38 H38            0.0001    -3.8795    -0.0279 H       
  39 H39           -2.1229    -2.6833    -0.0015 H       
  40 H40            1.8173     1.7322     0.8840 H       
  41 H41            1.8003     1.7418    -0.8958 H       
  42 H42            1.0905     3.1008     0.0083 H       
@<TRIPOS>BOND
   1    1   14 2
   2    2   22 1
   3    2   25 1
   4    3   24 2
   5    4    5 1
   6    4    9 1
   7    4   10 1
   8    5    6 2
   9    6   12 1
  10    7    8 1
  11    7   14 am
  12    7   34 1
  13    8   19 1
  14    8   35 1
  15    9   11 1
  16    9   26 1
  17    9   27 1
  18   10   12 ar
  19   10   13 ar
  20   11   14 1
  21   11   28 1
  22   11   29 1
  23   12   15 ar
  24   13   16 ar
  25   13   30 1
  26   15   17 ar
  27   15   31 1
  28   16   17 ar
  29   16   32 1
  30   17   33 1
  31   18   19 2
  32   18   20 1
  33   18   21 1
  34   19   36 1
  35   20   22 2
  36   20   37 1
  37   21   23 2
  38   21   38 1
  39   22   24 1
  40   23   24 1
  41   23   39 1
  42   25   40 1
  43   25   41 1
  44   25   42 1

#	End of record

#	Name: 12005693
#	Creating user name:	landrgr1
#	Creation time:	28. 01. 2015 13:52

#	Modifying user name:	landrgr1
#	Modification time:	28. 01. 2015 13:52

#	Program:	corina 3.48 0006  22.01.2010

@<TRIPOS>MOLECULE
12005693
  47   49    0    0    0
SMALL
NO_CHARGES


@<TRIPOS>ATOM
   1 F1             2.7815    -7.3856     0.0925 F       
   2 F2             1.1029    -8.4696    -1.0149 F       
   3 F3             1.0828    -8.3624     1.2670 F       
   4 O4             0.4719     1.3287    -0.3473 O.3     
   5 O5             2.2670    -2.7878     0.8402 O.2     
   6 O6             6.6240    -3.8277    -0.0439 O.3     
   7 O7             0.5871     3.9282    -0.5029 O.2     
   8 N8            -1.0706    -4.9319    -0.0558 N.pl3   
   9 N9            -0.7268    -6.2878     0.0106 N.pl3   
  10 N10            2.5828     4.2157     0.4227 N.am    
  11 N11            2.5023     5.5712     0.2747 N.3     
  12 C12            1.1622    -5.1216    -0.0281 C.2     
  13 C13            0.0888    -4.2049    -0.0801 C.2     
  14 C14            0.6275    -6.3905     0.0268 C.2     
  15 C15            2.6057    -4.7798    -0.0323 C.ar    
  16 C16            0.1930    -2.7944    -0.1453 C.2     
  17 C17            1.4127    -7.6750     0.0941 C.3     
  18 C18            3.3864    -5.0320     1.0945 C.ar    
  19 C19            3.1854    -4.2111    -1.1651 C.ar    
  20 C20            1.3496    -2.1390     0.3511 C.2     
  21 C21           -0.8448    -2.0334    -0.7063 C.2     
  22 C22            1.4313    -0.7445     0.2766 C.2     
  23 C23           -0.7420    -0.6769    -0.7682 C.2     
  24 C24            0.3909    -0.0240    -0.2764 C.2     
  25 C25            4.7284    -4.7129     1.0874 C.ar    
  26 C26            4.5280    -3.8943    -1.1659 C.ar    
  27 C27            5.3014    -4.1414    -0.0402 C.ar    
  28 C28            1.6587     1.9353     0.1679 C.3     
  29 C29            7.1485    -3.2422    -1.2373 C.3     
  30 C30            1.5700     3.4309     0.0046 C.2     
  31 H31           -1.9709    -4.5718    -0.0839 H       
  32 H32           -1.3512    -7.0295     0.0400 H       
  33 H33           -1.7265    -2.5249    -1.0904 H       
  34 H34            2.9411    -5.4763     1.9723 H       
  35 H35            2.5841    -4.0189    -2.0415 H       
  36 H36            2.3056    -0.2326     0.6508 H       
  37 H37           -1.5451    -0.0996    -1.2018 H       
  38 H38            5.3338    -4.9077     1.9603 H       
  39 H39            4.9778    -3.4539    -2.0434 H       
  40 H40            1.7624     1.6908     1.2250 H       
  41 H41            2.5246     1.5610    -0.3783 H       
  42 H42            8.2119    -3.0417    -1.1065 H       
  43 H43            7.0083    -3.9297    -2.0714 H       
  44 H44            6.6255    -2.3085    -1.4441 H       
  45 H45            3.3688     3.8179     0.8286 H       
  46 H46            3.3304     6.0238     0.6318 H       
  47 H47            2.3412     5.8208    -0.6896 H       
@<TRIPOS>BOND
   1    1   17 1
   2    2   17 1
   3    3   17 1
   4    4   24 1
   5    4   28 1
   6    5   20 2
   7    6   27 1
   8    6   29 1
   9    7   30 2
  10    8    9 1
  11    8   13 1
  12    8   31 1
  13    9   14 1
  14    9   32 1
  15   10   11 1
  16   10   30 am
  17   10   45 1
  18   11   46 1
  19   11   47 1
  20   12   13 1
  21   12   14 2
  22   12   15 1
  23   13   16 2
  24   14   17 1
  25   15   18 ar
  26   15   19 ar
  27   16   20 1
  28   16   21 1
  29   18   25 ar
  30   18   34 1
  31   19   26 ar
  32   19   35 1
  33   20   22 1
  34   21   23 2
  35   21   33 1
  36   22   24 2
  37   22   36 1
  38   23   24 1
  39   23   37 1
  40   25   27 ar
  41   25   38 1
  42   26   27 ar
  43   26   39 1
  44   28   30 1
  45   28   40 1
  46   28   41 1
  47   29   42 1
  48   29   43 1
  49   29   44 1

#	End of record

#	Name: 12005650
#	Creating user name:	landrgr1
#	Creation time:	28. 01. 2015 13:52

#	Modifying user name:	landrgr1
#	Modification time:	28. 01. 2015 13:52

#	Program:	corina 3.48 0006  22.01.2010

@<TRIPOS>MOLECULE
12005650
  52   53    0    0    0
SMALL
NO_CHARGES


@<TRIPOS>ATOM
   1 Cl1            0.0000     0.0000     0.0000 Cl      
   2 H2             0.0000     1.3700     0.0000 H       
   3 O3             8.5468     9.8366    10.5690 O.3     
   4 O4             9.3262    12.4607    10.9606 O.3     
   5 O5            10.6909     9.3507    10.3441 O.2     
   6 N6             7.4268     7.4558    12.8614 N.3     
   7 C7             7.0550     8.2364    11.6738 C.3     
   8 C8             8.2794     8.4223    10.7607 C.3     
   9 C9             6.0009     7.4712    10.8472 C.3     
  10 C10            7.9267     7.7636     9.4110 C.3     
  11 C11            6.3783     7.7748     9.3760 C.3     
  12 C12            8.3748     8.1977    13.7034 C.3     
  13 C13            6.2364     7.0645    13.6281 C.3     
  14 C14            9.8246    10.1927    10.3634 C.2     
  15 C15           10.1786    11.6429    10.1565 C.3     
  16 C16            9.9959    12.0024     8.7045 C.ar    
  17 C17           11.6143    11.8711    10.5537 C.ar    
  18 C18            9.4535    13.2259     8.3583 C.ar    
  19 C19           11.9112    12.6578    11.6509 C.ar    
  20 C20           10.3758    11.1110     7.7186 C.ar    
  21 C21           12.6341    11.2891     9.8242 C.ar    
  22 C22            9.2859    13.5556     7.0264 C.ar    
  23 C23           13.2282    12.8671    12.0152 C.ar    
  24 C24           10.2082    11.4407     6.3867 C.ar    
  25 C25           13.9510    11.4984    10.1885 C.ar    
  26 C26            9.6610    12.6621     6.0406 C.ar    
  27 C27           14.2482    12.2894    11.2825 C.ar    
  28 H28            6.6620     9.2078    11.9738 H       
  29 H29            9.1498     7.9341    11.1991 H       
  30 H30            6.0648     6.4011    11.0444 H       
  31 H31            5.0000     7.8417    11.0686 H       
  32 H32            8.3313     8.3475     8.5843 H       
  33 H33            8.3017     6.7407     9.3763 H       
  34 H34            6.0012     6.9969     8.7121 H       
  35 H35            6.0058     8.7543     9.0759 H       
  36 H36            7.9177     9.1323    14.0285 H       
  37 H37            8.6333     7.5971    14.5755 H       
  38 H38            9.2768     8.4142    13.1310 H       
  39 H39            5.6371     6.3700    13.0393 H       
  40 H40            6.5441     6.5826    14.5561 H       
  41 H41            5.6446     7.9506    13.8578 H       
  42 H42            9.3915    12.2835    11.9090 H       
  43 H43            9.1605    13.9240     9.1285 H       
  44 H44           11.1144    13.1091    12.2233 H       
  45 H45           10.8039    10.1570     7.9890 H       
  46 H46           12.4019    10.6706     8.9698 H       
  47 H47            8.8615    14.5112     6.7559 H       
  48 H48           13.4602    13.4823    12.8720 H       
  49 H49           10.5054    10.7444     5.6165 H       
  50 H50           14.7478    11.0434     9.6187 H       
  51 H51            9.5297    12.9195     5.0000 H       
  52 H52           15.2771    12.4532    11.5669 H       
@<TRIPOS>BOND
   1    1    2 1
   2    3    8 1
   3    3   14 1
   4    4   15 1
   5    4   42 1
   6    5   14 2
   7    6    7 1
   8    6   12 1
   9    6   13 1
  10    7    8 1
  11    7    9 1
  12    7   28 1
  13    8   10 1
  14    8   29 1
  15    9   11 1
  16    9   30 1
  17    9   31 1
  18   10   11 1
  19   10   32 1
  20   10   33 1
  21   11   34 1
  22   11   35 1
  23   12   36 1
  24   12   37 1
  25   12   38 1
  26   13   39 1
  27   13   40 1
  28   13   41 1
  29   14   15 1
  30   15   16 1
  31   15   17 1
  32   16   18 ar
  33   16   20 ar
  34   17   19 ar
  35   17   21 ar
  36   18   22 ar
  37   18   43 1
  38   19   23 ar
  39   19   44 1
  40   20   24 ar
  41   20   45 1
  42   21   25 ar
  43   21   46 1
  44   22   26 ar
  45   22   47 1
  46   23   27 ar
  47   23   48 1
  48   24   26 ar
  49   24   49 1
  50   25   27 ar
  51   25   50 1
  52   26   51 1
  53   27   52 1

#	End of record

#	Name: 12005627
#	Creating user name:	landrgr1
#	Creation time:	28. 01. 2015 13:52

#	Modifying user name:	landrgr1
#	Modification time:	28. 01. 2015 13:52

#	Program:	corina 3.48 0006  22.01.2010

@<TRIPOS>MOLECULE
12005627
  53   59    0    0    0
SMALL
NO_CHARGES


@<TRIPOS>ATOM
   1 O1            -0.0384     1.5085     0.0321 O.3     
   2 O2             5.3964     1.0516    -3.0864 O.2     
   3 O3             3.0106     4.8636    -2.9465 O.2     
   4 O4             3.9027     3.9673    -8.0676 O.3     
   5 O5             6.1041     4.4584    -8.2765 O.3     
   6 O6             2.1106    -5.9500    -0.1645 O.3     
   7 N7             4.3032     3.0288    -3.2567 N.am    
   8 N8            -0.0693     0.1018     0.0038 N.2     
   9 N9             3.6126    -8.9606    -0.2566 N.1     
  10 C10            2.8351     0.6647    -1.4295 C.3     
  11 C11            1.5965     2.6410    -1.3596 C.3     
  12 C12            3.9062     1.7916    -1.3245 C.3     
  13 C13            3.0806     3.1086    -1.2767 C.3     
  14 C14            2.1472     0.6445    -0.0314 C.3     
  15 C15            1.7359     1.3837    -2.2873 C.3     
  16 C16            1.3215     1.9597     0.0148 C.3     
  17 C17            4.6332     1.8846    -2.6468 C.2     
  18 C18            3.4393     3.7915    -2.5771 C.2     
  19 C19            1.0951    -0.4401    -0.0318 C.2     
  20 C20            1.3624    -1.8906    -0.0665 C.ar    
  21 C21            4.8216     3.3991    -4.5071 C.ar    
  22 C22            0.3009    -2.7987    -0.0626 C.ar    
  23 C23            2.6776    -2.3596    -0.1091 C.ar    
  24 C24            3.9859     3.4638    -5.6131 C.ar    
  25 C25            6.1700     3.7017    -4.6373 C.ar    
  26 C26            0.5550    -4.1525    -0.0955 C.ar    
  27 C27            2.9229    -3.7150    -0.1419 C.ar    
  28 C28            4.4978     3.8293    -6.8468 C.ar    
  29 C29            6.6822     4.0659    -5.8677 C.ar    
  30 C30            1.8645    -4.6148    -0.1326 C.ar    
  31 C31            5.8515     4.1313    -6.9748 C.ar    
  32 C32            4.8186     4.7502    -8.8558 C.3     
  33 C33            3.4801    -6.3566    -0.2017 C.3     
  34 C34            3.5549    -7.8263    -0.2327 C.1     
  35 H35            3.1926    -0.2973    -1.7968 H       
  36 H36            0.8761     3.3994    -1.6661 H       
  37 H37            4.5700     1.6697    -0.4686 H       
  38 H38            3.2878     3.7135    -0.3939 H       
  39 H39            2.8588     0.5583     0.7897 H       
  40 H40            2.0998     1.6469    -3.2805 H       
  41 H41            0.8124     0.8066    -2.3352 H       
  42 H42            1.5665     2.6004     0.8618 H       
  43 H43           -0.7174    -2.4402    -0.0335 H       
  44 H44            3.5010    -1.6607    -0.1168 H       
  45 H45            2.9366     3.2288    -5.5117 H       
  46 H46            6.8196     3.6519    -3.7759 H       
  47 H47           -0.2650    -4.8553    -0.0922 H       
  48 H48            3.9393    -4.0784    -0.1752 H       
  49 H49            7.7316     4.3013    -5.9665 H       
  50 H50            4.7891     4.4381    -9.8997 H       
  51 H51            4.5902     5.8122    -8.7659 H       
  52 H52            3.9558    -5.9497    -1.0940 H       
  53 H53            3.9935    -5.9852     0.6852 H       
@<TRIPOS>BOND
   1    1    8 1
   2    1   16 1
   3    2   17 2
   4    3   18 2
   5    4   28 1
   6    4   32 1
   7    5   31 1
   8    5   32 1
   9    6   30 1
  10    6   33 1
  11    7   17 am
  12    7   18 am
  13    7   21 1
  14    8   19 2
  15    9   34 3
  16   10   12 1
  17   10   14 1
  18   10   15 1
  19   10   35 1
  20   11   13 1
  21   11   15 1
  22   11   16 1
  23   11   36 1
  24   12   13 1
  25   12   17 1
  26   12   37 1
  27   13   18 1
  28   13   38 1
  29   14   16 1
  30   14   19 1
  31   14   39 1
  32   15   40 1
  33   15   41 1
  34   16   42 1
  35   19   20 1
  36   20   22 ar
  37   20   23 ar
  38   21   24 ar
  39   21   25 ar
  40   22   26 ar
  41   22   43 1
  42   23   27 ar
  43   23   44 1
  44   24   28 ar
  45   24   45 1
  46   25   29 ar
  47   25   46 1
  48   26   30 ar
  49   26   47 1
  50   27   30 ar
  51   27   48 1
  52   28   31 ar
  53   29   31 ar
  54   29   49 1
  55   32   50 1
  56   32   51 1
  57   33   34 1
  58   33   52 1
  59   33   53 1

#	End of record

#	Name: 12005591
#	Creating user name:	landrgr1
#	Creation time:	28. 01. 2015 13:52

#	Modifying user name:	landrgr1
#	Modification time:	28. 01. 2015 13:52

#	Program:	corina 3.48 0006  22.01.2010

@<TRIPOS>MOLECULE
12005591
  55   56    0    0    0
SMALL
NO_CHARGES


@<TRIPOS>ATOM
   1 Br1            0.0000     0.0000     0.0000 Br      
   2 N2             8.1688     7.9336     8.1266 N.4     
   3 C3             8.4164     6.4869     8.1477 C.3     
   4 C4             9.4456     8.6576     8.1312 C.3     
   5 C5             9.1588     6.0741     6.8749 C.3     
   6 C6            10.2276     8.3283     6.8578 C.3     
   7 C7            10.4937     6.8211     6.8041 C.3     
   8 C8             7.4143     8.2821     6.9154 C.3     
   9 C9             7.3884     8.3126     9.3121 C.3     
  10 C10            7.1475     9.7297     6.9030 C.1     
  11 C11            8.1205     7.9203    10.5274 C.1     
  12 C12            6.9347    10.8842     6.8932 C.1     
  13 C13            8.7043     7.6074    11.4967 C.1     
  14 C14            6.6752    12.2925     6.8812 C.ar    
  15 C15            9.4165     7.2258    12.6790 C.ar    
  16 C16            5.9682    12.8656     5.8236 C.ar    
  17 C17            8.8728     7.4830    13.9381 C.ar    
  18 C18            7.1234    13.0964     7.9299 C.ar    
  19 C19           10.6544     6.5901    12.5768 C.ar    
  20 C20            5.7215    14.2231     5.8180 C.ar    
  21 C21            9.5641     7.1129    15.0734 C.ar    
  22 C22            6.8701    14.4526     7.9123 C.ar    
  23 C23           11.3355     6.2250    13.7198 C.ar    
  24 C24            6.1739    15.0157     6.8577 C.ar    
  25 C25           10.7938     6.4884    14.9652 C.ar    
  26 C26            5.9013    16.4978     6.8449 C.3     
  27 C27           11.5436     6.0873    16.2095 C.3     
  28 H28            9.0215     6.2350     9.0186 H       
  29 H29            7.4656     5.9567     8.2013 H       
  30 H30            9.2546     9.7299     8.1727 H       
  31 H31           10.0288     8.3593     9.0024 H       
  32 H32            9.3432     5.0000     6.8933 H       
  33 H33            8.5544     6.3254     6.0033 H       
  34 H34            9.6454     8.6263     5.9858 H       
  35 H35           11.1760     8.8654     6.8639 H       
  36 H36           11.1189     6.5311     7.6485 H       
  37 H37           11.0009     6.5736     5.8716 H       
  38 H38            7.9966     8.0125     6.0343 H       
  39 H39            6.4695     7.7385     6.9068 H       
  40 H40            7.2320     9.3913     9.3145 H       
  41 H41            6.4238     7.8056     9.2894 H       
  42 H42            5.6151    12.2481     5.0110 H       
  43 H43            7.9132     7.9711    14.0238 H       
  44 H44            7.6670    12.6581     8.7538 H       
  45 H45           11.0783     6.3839    11.6051 H       
  46 H46            5.1743    14.6680     5.0000 H       
  47 H47            9.1445     7.3114    16.0485 H       
  48 H48            7.2165    15.0760     8.7234 H       
  49 H49           12.2937     5.7328    13.6420 H       
  50 H50            5.0000    16.7064     7.4213 H       
  51 H51            6.7458    17.0264     7.2869 H       
  52 H52            5.7608    16.8324     5.8171 H       
  53 H53           11.1940     5.1111    16.5455 H       
  54 H54           12.6100     6.0356    15.9903 H       
  55 H55           11.3689     6.8250    16.9926 H       
@<TRIPOS>BOND
   1    2    3 1
   2    2    4 1
   3    2    8 1
   4    2    9 1
   5    3    5 1
   6    3   28 1
   7    3   29 1
   8    4    6 1
   9    4   30 1
  10    4   31 1
  11    5    7 1
  12    5   32 1
  13    5   33 1
  14    6    7 1
  15    6   34 1
  16    6   35 1
  17    7   36 1
  18    7   37 1
  19    8   10 1
  20    8   38 1
  21    8   39 1
  22    9   11 1
  23    9   40 1
  24    9   41 1
  25   10   12 3
  26   11   13 3
  27   12   14 1
  28   13   15 1
  29   14   16 ar
  30   14   18 ar
  31   15   17 ar
  32   15   19 ar
  33   16   20 ar
  34   16   42 1
  35   17   21 ar
  36   17   43 1
  37   18   22 ar
  38   18   44 1
  39   19   23 ar
  40   19   45 1
  41   20   24 ar
  42   20   46 1
  43   21   25 ar
  44   21   47 1
  45   22   24 ar
  46   22   48 1
  47   23   25 ar
  48   23   49 1
  49   24   26 1
  50   25   27 1
  51   26   50 1
  52   26   51 1
  53   26   52 1
  54   27   53 1
  55   27   54 1
  56   27   55 1

#	End of record

#	Name: 12005523
#	Creating user name:	landrgr1
#	Creation time:	28. 01. 2015 13:52

#	Modifying user name:	landrgr1
#	Modification time:	28. 01. 2015 13:52

#	Program:	corina 3.48 0006  22.01.2010

@<TRIPOS>MOLECULE
12005523
  53   54    0    0    0
SMALL
NO_CHARGES


@<TRIPOS>ATOM
   1 S1            -0.0218     1.7577     0.0117 S.3     
   2 S2            -2.9230    -3.9895    -1.2906 S.3     
   3 O3             1.0415     4.3408     0.0154 O.2     
   4 N4             1.1584    -0.6444    -0.0125 N.ar    
   5 N5            -3.4623     0.5125     0.0374 N.1     
   6 C6             0.4782    -4.2116    -0.0231 C.3     
   7 C7             1.9617    -4.2510     0.4017 C.3     
   8 C8             0.1042    -2.7458    -0.0124 C.ar    
   9 C9             2.4671    -2.8607    -0.0375 C.3     
  10 C10            1.2420    -1.9680    -0.0199 C.ar    
  11 C11           -1.1546    -2.1299     0.0031 C.ar    
  12 C12            3.3879     4.1336    -0.0081 C.3     
  13 C13           -1.2086    -0.7182     0.0102 C.ar    
  14 C14            0.0021    -0.0041     0.0020 C.ar    
  15 C15           -2.3895    -2.9338     0.0112 C.2     
  16 C16            1.9840     3.5860     0.0024 C.2     
  17 C17            1.7562     2.0963    -0.0035 C.3     
  18 C18            3.3389     5.6628     0.0006 C.3     
  19 C19            4.1370     3.6403     1.2314 C.3     
  20 C20            4.1131     3.6537    -1.2669 C.3     
  21 C21           -3.2878    -2.9739     1.0193 C.2     
  22 C22           -2.4653    -0.0319     0.0254 C.1     
  23 C23           -4.3665    -3.8004     0.7963 C.2     
  24 C24           -4.3605    -4.4359    -0.3812 C.2     
  25 H25            0.3603    -4.6249    -1.0248 H       
  26 H26           -0.1344    -4.7637     0.6896 H       
  27 H27            2.0527    -4.3734     1.4810 H       
  28 H28            2.4951    -5.0418    -0.1256 H       
  29 H29            3.2144    -2.4909     0.6646 H       
  30 H30            2.8842    -2.9104    -1.0433 H       
  31 H31            2.2177     1.6547     0.8798 H       
  32 H32            2.2007     1.6643    -0.9001 H       
  33 H33            2.8222     6.0047     0.8974 H       
  34 H34            4.3544     6.0589    -0.0070 H       
  35 H35            2.8053     6.0142    -0.8825 H       
  36 H36            4.1719     2.5508     1.2252 H       
  37 H37            5.1525     4.0364     1.2239 H       
  38 H38            3.6203     3.9822     2.1282 H       
  39 H39            3.5795     4.0051    -2.1500 H       
  40 H40            5.1286     4.0498    -1.2745 H       
  41 H41            4.1480     2.5643    -1.2731 H       
  42 H42           -3.1692    -2.4031     1.9284 H       
  43 H43           -5.1592    -3.9265     1.5189 H       
  44 H44           -5.1240    -5.1194    -0.7222 H       
  45 O45           12.0956    14.1072     8.0329 O.3     
  46 C46           12.1150    12.6783     8.0250 C.3     
  47 C47           10.6796    12.1487     8.0359 C.3     
  48 H48           12.6252    12.3268     7.1282 H       
  49 H49           12.6422    12.3172     8.9081 H       
  50 H50           10.1695    12.5003     8.9327 H       
  51 H51           10.1525    12.5098     7.1528 H       
  52 H52           10.6944    11.0589     8.0299 H       
  53 H53           12.9736    14.5125     8.0267 H       
@<TRIPOS>BOND
   1    1   14 1
   2    1   17 1
   3    2   15 1
   4    2   24 1
   5    3   16 2
   6    4   10 ar
   7    4   14 ar
   8    5   22 3
   9    6    7 1
  10    6    8 1
  11    6   25 1
  12    6   26 1
  13    7    9 1
  14    7   27 1
  15    7   28 1
  16    8   10 ar
  17    8   11 ar
  18    9   10 1
  19    9   29 1
  20    9   30 1
  21   11   13 ar
  22   11   15 1
  23   12   16 1
  24   12   18 1
  25   12   19 1
  26   12   20 1
  27   13   14 ar
  28   13   22 1
  29   15   21 2
  30   16   17 1
  31   17   31 1
  32   17   32 1
  33   18   33 1
  34   18   34 1
  35   18   35 1
  36   19   36 1
  37   19   37 1
  38   19   38 1
  39   20   39 1
  40   20   40 1
  41   20   41 1
  42   21   23 1
  43   21   42 1
  44   23   24 2
  45   23   43 1
  46   24   44 1
  47   45   46 1
  48   45   53 1
  49   46   47 1
  50   46   48 1
  51   46   49 1
  52   47   50 1
  53   47   51 1
  54   47   52 1

#	End of record

#	Name: 12005509
#	Creating user name:	landrgr1
#	Creation time:	28. 01. 2015 13:52

#	Modifying user name:	landrgr1
#	Modification time:	28. 01. 2015 13:52

#	Program:	corina 3.48 0006  22.01.2010

@<TRIPOS>MOLECULE
12005509
  52   53    0    0    0
SMALL
NO_CHARGES


@<TRIPOS>ATOM
   1 S1            -2.9664     2.1383    -2.6851 S.2     
   2 O2            -0.2001     1.0061     0.7421 O.3     
   3 O3             1.5243    -3.3658    -5.0489 O.2     
   4 O4            -6.1652     4.3521     2.0803 O.3     
   5 N5            -0.3401    -2.2808    -4.5305 N.am    
   6 N6            -1.8811     0.0707    -1.4195 N.am    
   7 N7            -2.7544     1.7593    -0.0647 N.am    
   8 C8            -1.5141    -0.4242    -2.7486 C.3     
   9 C9             0.0080    -0.5539    -2.8420 C.3     
  10 C10           -2.1595    -1.7925    -2.9794 C.3     
  11 C11            0.3901    -1.0385    -4.2441 C.3     
  12 C12           -1.8019    -2.2910    -4.3831 C.3     
  13 C13           -1.5745    -0.7278    -0.2301 C.3     
  14 C14            0.3179    -3.3885    -4.9262 C.2     
  15 C15           -2.5010     1.2605    -1.2909 C.2     
  16 C16           -0.1873    -0.3506     0.2936 C.3     
  17 C17           -0.4453    -4.6551    -5.2162 C.3     
  18 C18           -3.4682     2.9548     0.0702 C.ar    
  19 C19            1.0542     1.4611     1.2537 C.3     
  20 C20           -4.4740     3.0598     1.0204 C.ar    
  21 C21           -3.1671     4.0403    -0.7430 C.ar    
  22 C22           -5.1792     4.2461     1.1511 C.ar    
  23 C23           -3.8720     5.2206    -0.6097 C.ar    
  24 C24           -4.8781     5.3252     0.3323 C.ar    
  25 C25           -6.8502     5.6037     2.1596 C.3     
  26 H26           -1.8660     0.2756    -3.5066 H       
  27 H27            0.4680     0.4163    -2.6544 H       
  28 H28            0.3579    -1.2725    -2.1008 H       
  29 H29           -1.7891    -2.4993    -2.2370 H       
  30 H30           -3.2422    -1.7038    -2.8897 H       
  31 H31            1.4628    -1.2273    -4.2857 H       
  32 H32            0.1218    -0.2793    -4.9788 H       
  33 H33           -2.2490    -1.6340    -5.1292 H       
  34 H34           -2.1756    -3.3063    -4.5165 H       
  35 H35           -2.3196    -0.5320     0.5410 H       
  36 H36           -1.5894    -1.7864    -0.4895 H       
  37 H37            0.5455    -0.4621    -0.5056 H       
  38 H38            0.0780    -1.0052     1.1238 H       
  39 H39            0.2505    -5.4371    -5.5203 H       
  40 H40           -0.9782    -4.9716    -4.3195 H       
  41 H41           -1.1604    -4.4729    -6.0184 H       
  42 H42           -2.4418     1.2894     0.7241 H       
  43 H43            0.9614     2.4991     1.5730 H       
  44 H44            1.3453     0.8440     2.1038 H       
  45 H45            1.8127     1.3872     0.4744 H       
  46 H46           -4.7073     2.2188     1.6565 H       
  47 H47           -2.3812     3.9613    -1.4796 H       
  48 H48           -3.6364     6.0635    -1.2424 H       
  49 H49           -5.4275     6.2494     0.4342 H       
  50 H50           -6.1375     6.3935     2.3973 H       
  51 H51           -7.3253     5.8191     1.2025 H       
  52 H52           -7.6101     5.5533     2.9393 H       
@<TRIPOS>BOND
   1    1   15 2
   2    2   16 1
   3    2   19 1
   4    3   14 2
   5    4   22 1
   6    4   25 1
   7    5   11 1
   8    5   12 1
   9    5   14 am
  10    6    8 1
  11    6   13 1
  12    6   15 am
  13    7   15 am
  14    7   18 1
  15    7   42 1
  16    8    9 1
  17    8   10 1
  18    8   26 1
  19    9   11 1
  20    9   27 1
  21    9   28 1
  22   10   12 1
  23   10   29 1
  24   10   30 1
  25   11   31 1
  26   11   32 1
  27   12   33 1
  28   12   34 1
  29   13   16 1
  30   13   35 1
  31   13   36 1
  32   14   17 1
  33   16   37 1
  34   16   38 1
  35   17   39 1
  36   17   40 1
  37   17   41 1
  38   18   20 ar
  39   18   21 ar
  40   19   43 1
  41   19   44 1
  42   19   45 1
  43   20   22 ar
  44   20   46 1
  45   21   23 ar
  46   21   47 1
  47   22   24 ar
  48   23   24 ar
  49   23   48 1
  50   24   49 1
  51   25   50 1
  52   25   51 1
  53   25   52 1

#	End of record

#	Name: 12005486
#	Creating user name:	landrgr1
#	Creation time:	28. 01. 2015 13:52

#	Modifying user name:	landrgr1
#	Modification time:	28. 01. 2015 13:52

#	Program:	corina 3.48 0006  22.01.2010

@<TRIPOS>MOLECULE
12005486
  38   39    0    0    0
SMALL
NO_CHARGES


@<TRIPOS>ATOM
   1 O1             5.9482    -8.7802    -0.1027 O.2     
   2 O2             1.5122    -8.9208    -0.0586 O.2     
   3 O3            -0.0164     1.3562     0.0095 O.3     
   4 O4            -2.2792    -0.1285     0.0240 O.2     
   5 N5             4.8666    -6.8488    -0.0813 N.am    
   6 N6             3.7381    -8.9011    -0.0810 N.am    
   7 N7             3.6586    -4.7972    -0.0587 N.pl3   
   8 N8             2.4380    -4.1098    -0.0429 N.pl3   
   9 C9             3.6732    -6.1685    -0.0657 C.2     
  10 C10            4.8829    -8.1944    -0.0886 C.2     
  11 C11            2.5002    -6.8708    -0.0578 C.2     
  12 C12            2.5455    -8.2737    -0.0658 C.2     
  13 C13            6.1287    -6.1051    -0.0959 C.3     
  14 C14            3.7884   -10.3652    -0.0898 C.3     
  15 C15            1.2048    -2.0816    -0.0202 C.2     
  16 C16            2.4236    -2.7681    -0.0360 C.2     
  17 C17            1.1886    -0.6681    -0.0129 C.2     
  18 C18           -0.0108    -2.7996    -0.0174 C.2     
  19 C19            0.0021    -0.0041     0.0020 C.2     
  20 C20           -1.1937    -2.1328    -0.0025 C.2     
  21 C21           -1.2109    -0.7269     0.0102 C.2     
  22 C22            1.2479     2.0223     0.0010 C.3     
  23 H23            1.5523    -6.3535    -0.0453 H       
  24 H24            4.4934    -4.3032    -0.0647 H       
  25 H25            6.4544    -5.9218     0.9280 H       
  26 H26            6.8872    -6.6868    -0.6199 H       
  27 H27            5.9837    -5.1532    -0.6069 H       
  28 H28            3.8112   -10.7341     0.9356 H       
  29 H29            2.9062   -10.7560    -0.5970 H       
  30 H30            4.6851   -10.6948    -0.6146 H       
  31 H31            1.6032    -4.6037    -0.0369 H       
  32 H32            3.3531    -2.2181    -0.0426 H       
  33 H33            2.1171    -0.1165    -0.0188 H       
  34 H34            0.0001    -3.8795    -0.0275 H       
  35 H35           -2.1229    -2.6833    -0.0008 H       
  36 H36            1.8173     1.7322     0.8840 H       
  37 H37            1.8003     1.7418    -0.8958 H       
  38 H38            1.0905     3.1008     0.0083 H       
@<TRIPOS>BOND
   1    1   10 2
   2    2   12 2
   3    3   19 1
   4    3   22 1
   5    4   21 2
   6    5    9 1
   7    5   10 am
   8    5   13 1
   9    6   10 am
  10    6   12 am
  11    6   14 1
  12    7    8 1
  13    7    9 1
  14    7   24 1
  15    8   16 1
  16    8   31 1
  17    9   11 2
  18   11   12 1
  19   11   23 1
  20   13   25 1
  21   13   26 1
  22   13   27 1
  23   14   28 1
  24   14   29 1
  25   14   30 1
  26   15   16 2
  27   15   17 1
  28   15   18 1
  29   16   32 1
  30   17   19 2
  31   17   33 1
  32   18   20 2
  33   18   34 1
  34   19   21 1
  35   20   21 1
  36   20   35 1
  37   22   36 1
  38   22   37 1
  39   22   38 1

#	End of record

#	Name: 12005463
#	Creating user name:	landrgr1
#	Creation time:	28. 01. 2015 13:52

#	Modifying user name:	landrgr1
#	Modification time:	28. 01. 2015 13:52

#	Program:	corina 3.48 0006  22.01.2010

@<TRIPOS>MOLECULE
12005463
  50   53    0    0    0
SMALL
NO_CHARGES


@<TRIPOS>ATOM
   1 O1            -0.9349    -0.7133     0.5507 O.2     
   2 O2             1.4996     3.0768    -0.0662 O.2     
   3 O3            -1.3629     6.2370    -0.8221 O.2     
   4 O4            -3.0806     6.3934     0.3927 O.2     
   5 N5            -0.0147     1.3689     0.2194 N.am    
   6 N6            -4.7181     4.3306    -0.1615 N.pl3   
   7 N7            -2.2469     5.7082    -0.1721 N.pl3   
   8 C8             1.4269    -0.4009     0.0810 C.3     
   9 C9             2.1737     0.8518     0.6349 C.3     
  10 C10            1.9667    -1.5843     0.8564 C.3     
  11 C11            3.5511     0.8276     0.0062 C.3     
  12 C12            0.0065     0.0142     0.3176 C.2     
  13 C13            1.2218     1.9312     0.2171 C.2     
  14 C14            3.4729    -1.5622     0.7010 C.2     
  15 C15            4.1558    -0.5241     0.3231 C.2     
  16 C16           -1.1998     2.1151     0.1234 C.ar    
  17 C17           -1.1426     3.4985     0.0259 C.ar    
  18 C18           -2.4286     1.4688     0.1204 C.ar    
  19 C19           -2.3080     4.2329    -0.0685 C.ar    
  20 C20           -3.5376     3.5872    -0.0659 C.ar    
  21 C21           -3.5941     2.2022     0.0260 C.ar    
  22 C22           -6.0162     3.6632    -0.0357 C.3     
  23 C23           -7.1363     4.6957    -0.1773 C.3     
  24 C24           -8.4716     4.0092    -0.0479 C.ar    
  25 C25           -9.0640     3.8783     1.1942 C.ar    
  26 C26           -9.1067     3.5154    -1.1720 C.ar    
  27 C27          -10.2888     3.2486     1.3129 C.ar    
  28 C28          -10.3316     2.8857    -1.0534 C.ar    
  29 C29          -10.9215     2.7501     0.1894 C.ar    
  30 H30            1.6253    -0.5235    -0.9837 H       
  31 H31            2.2523     0.7999     1.7208 H       
  32 H32            1.6997    -1.4926     1.9092 H       
  33 H33            1.5640    -2.5114     0.4486 H       
  34 H34            3.4698     0.9552    -1.0732 H       
  35 H35            4.1678     1.6199     0.4303 H       
  36 H36            4.0154    -2.4703     0.9190 H       
  37 H37            5.2262    -0.6322     0.2283 H       
  38 H38           -0.1864     4.0006     0.0241 H       
  39 H39           -2.4725     0.3920     0.1915 H       
  40 H40           -4.5500     1.6994     0.0241 H       
  41 H41           -4.6775     5.2881    -0.3111 H       
  42 H42           -6.1150     2.9104    -0.8177 H       
  43 H43           -6.0852     3.1839     0.9408 H       
  44 H44           -7.0375     5.4485     0.6047 H       
  45 H45           -7.0673     5.1750    -1.1538 H       
  46 H46           -8.5697     4.2678     2.0719 H       
  47 H47           -8.6461     3.6219    -2.1431 H       
  48 H48          -10.7513     3.1457     2.2834 H       
  49 H49          -10.8279     2.5002    -1.9317 H       
  50 H50          -11.8783     2.2578     0.2822 H       
@<TRIPOS>BOND
   1    1   12 2
   2    2   13 2
   3    3    7 2
   4    4    7 2
   5    5   12 am
   6    5   13 am
   7    5   16 1
   8    6   20 1
   9    6   22 1
  10    6   41 1
  11    7   19 1
  12    8    9 1
  13    8   10 1
  14    8   12 1
  15    8   30 1
  16    9   11 1
  17    9   13 1
  18    9   31 1
  19   10   14 1
  20   10   32 1
  21   10   33 1
  22   11   15 1
  23   11   34 1
  24   11   35 1
  25   14   15 2
  26   14   36 1
  27   15   37 1
  28   16   17 ar
  29   16   18 ar
  30   17   19 ar
  31   17   38 1
  32   18   21 ar
  33   18   39 1
  34   19   20 ar
  35   20   21 ar
  36   21   40 1
  37   22   23 1
  38   22   42 1
  39   22   43 1
  40   23   24 1
  41   23   44 1
  42   23   45 1
  43   24   25 ar
  44   24   26 ar
  45   25   27 ar
  46   25   46 1
  47   26   28 ar
  48   26   47 1
  49   27   29 ar
  50   27   48 1
  51   28   29 ar
  52   28   49 1
  53   29   50 1

#	End of record

#	Name: 12005451
#	Creating user name:	landrgr1
#	Creation time:	28. 01. 2015 13:52

#	Modifying user name:	landrgr1
#	Modification time:	28. 01. 2015 13:52

#	Program:	corina 3.48 0006  22.01.2010

@<TRIPOS>MOLECULE
12005451
  53   56    0    0    0
SMALL
NO_CHARGES


@<TRIPOS>ATOM
   1 S1             0.0566     1.3162    -0.0216 S.o2    
   2 O2             0.0120     0.2107    -0.9132 O.2     
   3 O3             1.2186     1.6756     0.7132 O.2     
   4 O4            -1.3207     3.4211    -2.7591 O.2     
   5 O5             1.7314     7.6008     0.3717 O.3     
   6 O6             3.7633     6.7720     0.0431 O.2     
   7 N7            -0.3668     2.6493    -0.9082 N.am    
   8 N8            -3.5662    -0.9588    -2.3389 N.ar    
   9 N9             4.8492    11.5036     0.9508 N.ar    
  10 C10           -1.2197     1.0512     1.1638 C.ar    
  11 C11            0.1645     3.9029    -0.5841 C.ar    
  12 C12           -1.2232     2.5271    -1.9417 C.2     
  13 C13           -1.7537    -0.2125     1.3337 C.ar    
  14 C14           -1.6831     2.1058     1.9280 C.ar    
  15 C15            0.2815     4.8819    -1.5624 C.ar    
  16 C16            0.5698     4.1705     0.7171 C.ar    
  17 C17           -3.2221     0.6353     3.0242 C.ar    
  18 C18           -2.7550    -0.4204     2.2638 C.ar    
  19 C19           -2.6844     1.8979     2.8581 C.ar    
  20 C20           -2.0455     1.3031    -2.0813 C.ar    
  21 C21            0.8053     6.1184    -1.2419 C.ar    
  22 C22            1.0934     5.4075     1.0361 C.ar    
  23 C23            1.2153     6.3831     0.0570 C.ar    
  24 C24           -4.3141     0.4087     4.0378 C.3     
  25 C25           -2.9340     1.1524    -3.1506 C.ar    
  26 C26           -1.9554     0.2664    -1.1472 C.ar    
  27 C27           -3.6819    -0.0054    -3.2417 C.ar    
  28 C28           -2.7411    -0.8571    -1.3159 C.ar    
  29 C29            3.0693     7.7354     0.2979 C.2     
  30 C30            3.6939     9.0577     0.5273 C.ar    
  31 C31            5.0813     9.2196     0.4554 C.ar    
  32 C32            2.9131    10.1803     0.8216 C.ar    
  33 C33            5.6218    10.4716     0.6761 C.ar    
  34 C34            3.5378    11.3950     1.0281 C.ar    
  35 H35           -1.3888    -1.0372     0.7396 H       
  36 H36           -1.2626     3.0922     1.7986 H       
  37 H37           -0.0369     4.6758    -2.5736 H       
  38 H38            0.4750     3.4112     1.4793 H       
  39 H39           -3.1727    -1.4075     2.3960 H       
  40 H40           -3.0462     2.7218     3.4553 H       
  41 H41            0.8963     6.8797    -2.0025 H       
  42 H42            1.4082     5.6158     2.0480 H       
  43 H43           -3.8697     0.1507     4.9991 H       
  44 H44           -4.9060     1.3179     4.1434 H       
  45 H45           -4.9563    -0.4063     3.7039 H       
  46 H46           -3.0336     1.9293    -3.8941 H       
  47 H47           -1.2816     0.3430    -0.3067 H       
  48 H48           -4.3705    -0.1313    -4.0641 H       
  49 H49           -2.6789    -1.6630    -0.5996 H       
  50 H50            5.7204     8.3785     0.2304 H       
  51 H51            1.8382    10.0986     0.8865 H       
  52 H52            6.6920    10.6068     0.6224 H       
  53 H53            2.9436    12.2675     1.2562 H       
@<TRIPOS>BOND
   1    1    2 2
   2    1    3 2
   3    1    7 am
   4    1   10 1
   5    4   12 2
   6    5   23 1
   7    5   29 1
   8    6   29 2
   9    7   11 1
  10    7   12 am
  11    8   27 ar
  12    8   28 ar
  13    9   33 ar
  14    9   34 ar
  15   10   13 ar
  16   10   14 ar
  17   11   15 ar
  18   11   16 ar
  19   12   20 1
  20   13   18 ar
  21   13   35 1
  22   14   19 ar
  23   14   36 1
  24   15   21 ar
  25   15   37 1
  26   16   22 ar
  27   16   38 1
  28   17   18 ar
  29   17   19 ar
  30   17   24 1
  31   18   39 1
  32   19   40 1
  33   20   25 ar
  34   20   26 ar
  35   21   23 ar
  36   21   41 1
  37   22   23 ar
  38   22   42 1
  39   24   43 1
  40   24   44 1
  41   24   45 1
  42   25   27 ar
  43   25   46 1
  44   26   28 ar
  45   26   47 1
  46   27   48 1
  47   28   49 1
  48   29   30 1
  49   30   31 ar
  50   30   32 ar
  51   31   33 ar
  52   31   50 1
  53   32   34 ar
  54   32   51 1
  55   33   52 1
  56   34   53 1

#	End of record

#	Name: 12005441
#	Creating user name:	landrgr1
#	Creation time:	28. 01. 2015 13:52

#	Modifying user name:	landrgr1
#	Modification time:	28. 01. 2015 13:52

#	Program:	corina 3.48 0006  22.01.2010

@<TRIPOS>MOLECULE
12005441
  39   41    0    0    0
SMALL
NO_CHARGES


@<TRIPOS>ATOM
   1 O1            -0.0034     1.4324    -0.0142 O.3     
   2 O2             0.9673    -4.4957     0.2461 O.2     
   3 O3             2.6814    -3.3105    -0.0822 O.2     
   4 N4            -1.0869    -0.8198     0.2948 N.pl3   
   5 N5             0.0153     0.0196     0.0790 N.pl3   
   6 N6             2.3601    -0.4238    -0.2298 N.2     
   7 N7            -0.6412    -2.1447     0.3196 N.2     
   8 N8             1.4802    -3.4009     0.0978 N.pl3   
   9 C9             3.1505     1.4268    -1.6198 C.3     
  10 C10            2.7015     1.0009    -0.2206 C.3     
  11 C11            1.1254    -0.8013    -0.0260 C.2     
  12 C12            3.5017     2.8923    -1.6102 C.ar    
  13 C13           -2.4081    -0.4018     0.4628 C.ar    
  14 C14            0.6436    -2.1802     0.1364 C.2     
  15 C15            4.7942     3.2915    -1.3258 C.ar    
  16 C16            2.5326     3.8371    -1.8914 C.ar    
  17 C17           -3.4138    -1.3382     0.6705 C.ar    
  18 C18           -2.7201     0.9520     0.4285 C.ar    
  19 C19            5.1164     4.6357    -1.3170 C.ar    
  20 C20            2.8547     5.1814    -1.8827 C.ar    
  21 C21           -4.7196    -0.9210     0.8368 C.ar    
  22 C22           -4.0282     1.3618     0.5956 C.ar    
  23 C23            4.1460     5.5808    -1.5931 C.ar    
  24 C24           -5.0272     0.4267     0.7964 C.ar    
  25 H25            4.0247     0.8456    -1.9134 H       
  26 H26            2.3424     1.2515    -2.3298 H       
  27 H27            1.8274     1.5820     0.0731 H       
  28 H28            3.5097     1.1762     0.4895 H       
  29 H29            5.5523     2.5531    -1.1101 H       
  30 H30            1.5239     3.5250    -2.1183 H       
  31 H31           -3.1744    -2.3909     0.7015 H       
  32 H32           -1.9405     1.6827     0.2717 H       
  33 H33            6.1260     4.9477    -1.0941 H       
  34 H34            2.0977     5.9195    -2.1028 H       
  35 H35           -5.5017    -1.6481     0.9982 H       
  36 H36           -4.2713     2.4137     0.5694 H       
  37 H37            4.3976     6.6311    -1.5859 H       
  38 H38           -6.0495     0.7501     0.9260 H       
  39 H39           -0.1385     1.7656    -0.9118 H       
@<TRIPOS>BOND
   1    1    5 1
   2    1   39 1
   3    2    8 2
   4    3    8 2
   5    4    5 1
   6    4    7 1
   7    4   13 1
   8    5   11 1
   9    6   10 1
  10    6   11 2
  11    7   14 2
  12    8   14 1
  13    9   10 1
  14    9   12 1
  15    9   25 1
  16    9   26 1
  17   10   27 1
  18   10   28 1
  19   11   14 1
  20   12   15 ar
  21   12   16 ar
  22   13   17 ar
  23   13   18 ar
  24   15   19 ar
  25   15   29 1
  26   16   20 ar
  27   16   30 1
  28   17   21 ar
  29   17   31 1
  30   18   22 ar
  31   18   32 1
  32   19   23 ar
  33   19   33 1
  34   20   23 ar
  35   20   34 1
  36   21   24 ar
  37   21   35 1
  38   22   24 ar
  39   22   36 1
  40   23   37 1
  41   24   38 1

#	End of record

#	Name: 12005401
#	Creating user name:	landrgr1
#	Creation time:	28. 01. 2015 13:52

#	Modifying user name:	landrgr1
#	Modification time:	28. 01. 2015 13:52

#	Program:	corina 3.48 0006  22.01.2010

@<TRIPOS>MOLECULE
12005401
  48   49    0    0    0
SMALL
NO_CHARGES


@<TRIPOS>ATOM
   1 O1             2.3480    -2.5926    -0.0388 O.2     
   2 N2            -0.0164     1.3584     0.0095 N.pl3   
   3 C3            -1.1159    -2.0984    -0.7129 C.3     
   4 C4            -1.2991    -0.7611     0.0104 C.3     
   5 C5             0.0073    -2.8824    -0.0268 C.3     
   6 C6             0.0021    -0.0041     0.0020 C.2     
   7 C7            -2.3973    -2.8886    -0.6452 C.ar    
   8 C8             0.9423     3.6083     0.0124 C.3     
   9 C9             1.2422     2.1081     0.0015 C.3     
  10 C10            2.2567     4.3913     0.0041 C.3     
  11 C11            1.2618    -2.0475    -0.0270 C.2     
  12 C12            1.1873    -0.6512    -0.0132 C.2     
  13 C13            1.9568     5.8916     0.0150 C.3     
  14 C14            3.2713     6.6745     0.0067 C.3     
  15 C15           -3.0437    -3.2582    -1.8099 C.ar    
  16 C16           -2.9234    -3.2487     0.5814 C.ar    
  17 C17            2.9713     8.1748     0.0176 C.3     
  18 C18           -4.2192    -3.9830    -1.7479 C.ar    
  19 C19           -4.0988    -3.9735     0.6434 C.ar    
  20 C20            4.2858     8.9577     0.0092 C.3     
  21 C21           -4.7480    -4.3386    -0.5212 C.ar    
  22 H22           -0.8512    -1.9169    -1.7545 H       
  23 H23           -2.0640    -0.1746    -0.4985 H       
  24 H24           -1.6064    -0.9440     1.0400 H       
  25 H25           -0.2804    -3.1084     0.9999 H       
  26 H26            0.1875    -3.8107    -0.5688 H       
  27 H27            0.3587     3.8686    -0.8706 H       
  28 H28            0.3757     3.8591     0.9092 H       
  29 H29            1.8258     1.8478     0.8846 H       
  30 H30            1.8088     1.8573    -0.8953 H       
  31 H31            2.8403     4.1310     0.8872 H       
  32 H32            2.8233     4.1406    -0.8927 H       
  33 H33           -0.8629     1.8319     0.0161 H       
  34 H34            2.1011    -0.0756    -0.0152 H       
  35 H35            1.3732     6.1519    -0.8680 H       
  36 H36            1.3902     6.1423     0.9118 H       
  37 H37            3.8548     6.4142     0.8897 H       
  38 H38            3.8378     6.4238    -0.8901 H       
  39 H39           -2.6306    -2.9804    -2.7683 H       
  40 H40           -2.4159    -2.9640     1.4912 H       
  41 H41            2.3878     8.4351    -0.8655 H       
  42 H42            2.4048     8.4255     0.9144 H       
  43 H43           -4.7246    -4.2712    -2.6578 H       
  44 H44           -4.5096    -4.2552     1.6017 H       
  45 H45            4.8694     8.6975     0.8923 H       
  46 H46            4.8524     8.7070    -0.8875 H       
  47 H47            4.0721    10.0266     0.0170 H       
  48 H48           -5.6666    -4.9046    -0.4727 H       
@<TRIPOS>BOND
   1    1   11 2
   2    2    6 1
   3    2    9 1
   4    2   33 1
   5    3    4 1
   6    3    5 1
   7    3    7 1
   8    3   22 1
   9    4    6 1
  10    4   23 1
  11    4   24 1
  12    5   11 1
  13    5   25 1
  14    5   26 1
  15    6   12 2
  16    7   15 ar
  17    7   16 ar
  18    8    9 1
  19    8   10 1
  20    8   27 1
  21    8   28 1
  22    9   29 1
  23    9   30 1
  24   10   13 1
  25   10   31 1
  26   10   32 1
  27   11   12 1
  28   12   34 1
  29   13   14 1
  30   13   35 1
  31   13   36 1
  32   14   17 1
  33   14   37 1
  34   14   38 1
  35   15   18 ar
  36   15   39 1
  37   16   19 ar
  38   16   40 1
  39   17   20 1
  40   17   41 1
  41   17   42 1
  42   18   21 ar
  43   18   43 1
  44   19   21 ar
  45   19   44 1
  46   20   45 1
  47   20   46 1
  48   20   47 1
  49   21   48 1

#	End of record

#	Name: 12005384
#	Creating user name:	landrgr1
#	Creation time:	28. 01. 2015 13:52

#	Modifying user name:	landrgr1
#	Modification time:	28. 01. 2015 13:52

#	Program:	corina 3.48 0006  22.01.2010

@<TRIPOS>MOLECULE
12005384
  46   49    0    0    0
SMALL
NO_CHARGES


@<TRIPOS>ATOM
   1 S1            -0.0218     1.7540     0.0117 S.3     
   2 O2            -4.6469    -0.5482     0.0526 O.2     
   3 O3            -5.3144     3.0796    -0.4379 O.3     
   4 O4            -0.7186     3.4555    -1.7030 O.3     
   5 O5            -3.1307     1.1433    -2.1061 O.2     
   6 N6            -2.4216    -0.2868     0.0233 N.am    
   7 N7            -2.5331     1.1097     0.0332 N.am    
   8 N8            -1.0055    -2.1722    -0.0013 N.2     
   9 C9            -3.3636    -2.5105     0.0234 C.ar    
  10 C10           -1.1816    -0.8715     0.0082 C.2     
  11 C11           -2.0468    -3.0264     0.0032 C.ar    
  12 C12           -3.5385    -1.0509     0.0342 C.2     
  13 C13            0.0021    -0.0041     0.0020 C.2     
  14 C14           -3.0152     3.2323    -1.0762 C.ar    
  15 C15           -4.4526    -3.3796     0.0283 C.ar    
  16 C16           -2.8981     1.7646    -1.0867 C.2     
  17 C17           -1.8547    -4.4115    -0.0075 C.ar    
  18 C18           -4.2352     3.8411    -0.7476 C.ar    
  19 C19           -1.9060     4.0316    -1.3892 C.ar    
  20 C20           -4.2366    -4.7404     0.0136 C.ar    
  21 C21           -2.9452    -5.2512    -0.0029 C.ar    
  22 C22            1.2983    -0.4330    -0.0127 C.2     
  23 C23           -4.3343     5.2230    -0.7409 C.ar    
  24 C24           -2.0274     5.4116    -1.3764 C.ar    
  25 C25           -3.2363     6.0012    -1.0570 C.ar    
  26 C26            2.2120     0.5965    -0.0159 C.2     
  27 C27            1.6828     1.8241    -0.0042 C.2     
  28 C28           -6.5233     3.7691    -0.1135 C.3     
  29 C29            0.3668     4.3326    -2.0107 C.3     
  30 H30           -2.3475     1.6053     0.8462 H       
  31 H31           -5.4594    -2.9891     0.0441 H       
  32 H32           -0.8552    -4.8205    -0.0196 H       
  33 H33           -5.0792    -5.4160     0.0174 H       
  34 H34           -2.7947    -6.3206    -0.0115 H       
  35 H35            1.5787    -1.4760    -0.0204 H       
  36 H36           -5.2728     5.6939    -0.4881 H       
  37 H37           -1.1745     6.0290    -1.6167 H       
  38 H38           -3.3225     7.0778    -1.0500 H       
  39 H39            3.2783     0.4251    -0.0266 H       
  40 H40            2.2578     2.7383    -0.0051 H       
  41 H41           -6.8307     4.3819    -0.9609 H       
  42 H42           -7.3052     3.0444     0.1135 H       
  43 H43           -6.3561     4.4070     0.7545 H       
  44 H44            0.1037     4.9484    -2.8707 H       
  45 H45            0.5700     4.9739    -1.1531 H       
  46 H46            1.2546     3.7444    -2.2429 H       
@<TRIPOS>BOND
   1    1   13 1
   2    1   27 1
   3    2   12 2
   4    3   18 1
   5    3   28 1
   6    4   19 1
   7    4   29 1
   8    5   16 2
   9    6    7 1
  10    6   10 1
  11    6   12 am
  12    7   16 am
  13    7   30 1
  14    8   10 2
  15    8   11 1
  16    9   11 ar
  17    9   12 1
  18    9   15 ar
  19   10   13 1
  20   11   17 ar
  21   13   22 2
  22   14   16 1
  23   14   18 ar
  24   14   19 ar
  25   15   20 ar
  26   15   31 1
  27   17   21 ar
  28   17   32 1
  29   18   23 ar
  30   19   24 ar
  31   20   21 ar
  32   20   33 1
  33   21   34 1
  34   22   26 1
  35   22   35 1
  36   23   25 ar
  37   23   36 1
  38   24   25 ar
  39   24   37 1
  40   25   38 1
  41   26   27 2
  42   26   39 1
  43   27   40 1
  44   28   41 1
  45   28   42 1
  46   28   43 1
  47   29   44 1
  48   29   45 1
  49   29   46 1

#	End of record

#	Name: 12005365
#	Creating user name:	landrgr1
#	Creation time:	28. 01. 2015 13:52

#	Modifying user name:	landrgr1
#	Modification time:	28. 01. 2015 13:52

#	Program:	corina 3.48 0006  22.01.2010

@<TRIPOS>MOLECULE
12005365
  60   61    0    0    0
SMALL
NO_CHARGES


@<TRIPOS>ATOM
   1 S1            -1.0795    -2.8476     3.5029 S.2     
   2 O2            -0.4799    -0.5366    -1.5334 O.3     
   3 O3             1.5465    -8.4605     5.2629 O.3     
   4 O4             0.1261    -9.7176     4.1088 O.2     
   5 N5            -5.2845     0.5949     3.3661 N.3     
   6 N6            -1.8129    -2.0012     1.0945 N.am    
   7 N7            -1.0525    -4.2047     1.2199 N.am    
   8 C8            -3.5709    -0.7316     2.2254 C.3     
   9 C9            -3.8893     0.6010     2.9063 C.3     
  10 C10           -2.1178    -0.7253     1.7465 C.3     
  11 C11           -5.4838    -0.3978     4.4304 C.3     
  12 C12           -5.6984     1.9327     3.8098 C.3     
  13 C13           -2.0298    -2.1581    -0.3459 C.3     
  14 C14           -1.3330    -3.0309     1.8197 C.2     
  15 C15           -6.9802    -0.6639     4.6061 C.3     
  16 C16           -5.9499     2.8199     2.5889 C.3     
  17 C17           -0.7775    -1.7681    -1.0878 C.2     
  18 C18            0.2317    -2.5944    -1.4165 C.2     
  19 C19           -0.6413    -5.2960     1.9824 C.ar    
  20 C20            1.1932    -1.8151    -2.1000 C.2     
  21 C21            0.7141    -0.5591    -2.1480 C.2     
  22 C22           -1.1977    -6.5512     1.7546 C.ar    
  23 C23            0.3289    -5.1294     2.9662 C.ar    
  24 C24           -0.7939    -7.6313     2.5059 C.ar    
  25 C25            0.7377    -6.2052     3.7210 C.ar    
  26 C26            0.1765    -7.4665     3.4990 C.ar    
  27 C27            0.6112    -8.6211     4.3062 C.2     
  28 C28            1.9261    -9.6409     6.0185 C.3     
  29 C29            2.9909    -9.2650     7.0508 C.3     
  30 H30           -3.7161    -1.5461     2.9351 H       
  31 H31           -4.2342    -0.8710     1.3717 H       
  32 H32           -3.7442     1.4155     2.1967 H       
  33 H33           -3.2261     0.7404     3.7600 H       
  34 H34           -1.4546    -0.5859     2.6002 H       
  35 H35           -1.9727     0.0892     1.0368 H       
  36 H36           -4.9789    -1.3256     4.1611 H       
  37 H37           -5.0703    -0.0171     5.3644 H       
  38 H38           -6.6137     1.8539     4.3964 H       
  39 H39           -4.9111     2.3721     4.4223 H       
  40 H40           -2.2735    -3.1975    -0.5656 H       
  41 H41           -2.8534    -1.5174    -0.6612 H       
  42 H42           -7.4882     0.2680     4.8545 H       
  43 H43           -7.3893    -1.0647     3.6787 H       
  44 H44           -7.1292    -1.3844     5.4103 H       
  45 H45           -5.0593     2.8344     1.9607 H       
  46 H46           -6.7902     2.4237     2.0188 H       
  47 H47           -6.1794     3.8335     2.9174 H       
  48 H48           -1.1369    -4.2899     0.2573 H       
  49 H49            0.2956    -3.6504    -1.1994 H       
  50 H50            2.1324    -2.1616    -2.5053 H       
  51 H51            1.2060     0.2875    -2.6036 H       
  52 H52           -1.9474    -6.6777     0.9876 H       
  53 H53            0.7617    -4.1548     3.1373 H       
  54 H54           -1.2263    -8.6050     2.3288 H       
  55 H55            1.4906    -6.0752     4.4843 H       
  56 H56            1.0508   -10.0425     6.5291 H       
  57 H57            2.3277   -10.3932     5.3396 H       
  58 H58            3.8662    -8.8634     6.5402 H       
  59 H59            2.5893    -8.5127     7.7296 H       
  60 H60            3.2759   -10.1511     7.6180 H       
@<TRIPOS>BOND
   1    1   14 2
   2    2   17 1
   3    2   21 1
   4    3   27 1
   5    3   28 1
   6    4   27 2
   7    5    9 1
   8    5   11 1
   9    5   12 1
  10    6   10 1
  11    6   13 1
  12    6   14 am
  13    7   14 am
  14    7   19 1
  15    7   48 1
  16    8    9 1
  17    8   10 1
  18    8   30 1
  19    8   31 1
  20    9   32 1
  21    9   33 1
  22   10   34 1
  23   10   35 1
  24   11   15 1
  25   11   36 1
  26   11   37 1
  27   12   16 1
  28   12   38 1
  29   12   39 1
  30   13   17 1
  31   13   40 1
  32   13   41 1
  33   15   42 1
  34   15   43 1
  35   15   44 1
  36   16   45 1
  37   16   46 1
  38   16   47 1
  39   17   18 2
  40   18   20 1
  41   18   49 1
  42   19   22 ar
  43   19   23 ar
  44   20   21 2
  45   20   50 1
  46   21   51 1
  47   22   24 ar
  48   22   52 1
  49   23   25 ar
  50   23   53 1
  51   24   26 ar
  52   24   54 1
  53   25   26 ar
  54   25   55 1
  55   26   27 1
  56   28   29 1
  57   28   56 1
  58   28   57 1
  59   29   58 1
  60   29   59 1
  61   29   60 1

#	End of record

#	Name: 12005342
#	Creating user name:	landrgr1
#	Creation time:	28. 01. 2015 13:52

#	Modifying user name:	landrgr1
#	Modification time:	28. 01. 2015 13:52

#	Program:	corina 3.48 0006  22.01.2010

@<TRIPOS>MOLECULE
12005342
  40   42    0    0    0
SMALL
NO_CHARGES


@<TRIPOS>ATOM
   1 Br1           -5.7802    -2.1362     0.0458 Br      
   2 O2            -0.0173     1.4248     0.0099 O.3     
   3 O3            -1.0815     3.6912     0.0314 O.2     
   4 O4            -3.5540     7.9477     0.0765 O.3     
   5 N5             0.0584     5.5981     0.0311 N.am    
   6 N6            -1.1222     6.3521     0.0460 N.2     
   7 C7             0.0021    -0.0041     0.0020 C.3     
   8 C8            -1.4117    -0.5257     0.0127 C.ar    
   9 C9             1.1830     2.0571     0.0018 C.ar    
  10 C10            1.2410     3.4579     0.0088 C.ar    
  11 C11            2.3578     1.3209    -0.0076 C.ar    
  12 C12           -2.0714    -0.7584    -1.1796 C.ar    
  13 C13           -2.0466    -0.7766     1.2148 C.ar    
  14 C14            2.4829     4.0973     0.0003 C.ar    
  15 C15            3.5790     1.9659    -0.0159 C.ar    
  16 C16            3.6407     3.3496    -0.0148 C.ar    
  17 C17           -0.0019     4.2517     0.0245 C.2     
  18 C18           -3.3683    -1.2364    -1.1703 C.ar    
  19 C19           -3.3433    -1.2551     1.2251 C.ar    
  20 C20           -4.0059    -1.4823     0.0323 C.ar    
  21 C21           -2.2994     8.4409     0.0681 C.2     
  22 C22           -1.0640     7.6519     0.0525 C.2     
  23 C23           -2.3806     9.8033     0.0761 C.2     
  24 C24           -3.7498    10.1268     0.0899 C.2     
  25 C25           -4.4323     8.9635     0.0897 C.2     
  26 H26            0.5123    -0.3556    -0.8948 H       
  27 H27            0.5293    -0.3651     0.8851 H       
  28 H28            2.3180     0.2416    -0.0082 H       
  29 H29            2.5358     5.1760     0.0052 H       
  30 H30           -1.5735    -0.5664    -2.1186 H       
  31 H31           -1.5291    -0.5992     2.1460 H       
  32 H32            4.4913     1.3880    -0.0229 H       
  33 H33            4.6004     3.8449    -0.0213 H       
  34 H34           -3.8838    -1.4175    -2.1019 H       
  35 H35           -3.8393    -1.4508     2.1643 H       
  36 H36            0.9193     6.0450     0.0256 H       
  37 H37           -0.1055     8.1495     0.0463 H       
  38 H38           -1.5540    10.4984     0.0731 H       
  39 H39           -4.1745    11.1198     0.0994 H       
  40 H40           -5.5077     8.8651     0.0987 H       
@<TRIPOS>BOND
   1    1   20 1
   2    2    7 1
   3    2    9 1
   4    3   17 2
   5    4   21 1
   6    4   25 1
   7    5    6 1
   8    5   17 am
   9    5   36 1
  10    6   22 2
  11    7    8 1
  12    7   26 1
  13    7   27 1
  14    8   12 ar
  15    8   13 ar
  16    9   10 ar
  17    9   11 ar
  18   10   14 ar
  19   10   17 1
  20   11   15 ar
  21   11   28 1
  22   12   18 ar
  23   12   30 1
  24   13   19 ar
  25   13   31 1
  26   14   16 ar
  27   14   29 1
  28   15   16 ar
  29   15   32 1
  30   16   33 1
  31   18   20 ar
  32   18   34 1
  33   19   20 ar
  34   19   35 1
  35   21   22 1
  36   21   23 2
  37   22   37 1
  38   23   24 1
  39   23   38 1
  40   24   25 2
  41   24   39 1
  42   25   40 1

#	End of record

#	Name: 12005304
#	Creating user name:	landrgr1
#	Creation time:	28. 01. 2015 13:52

#	Modifying user name:	landrgr1
#	Modification time:	28. 01. 2015 13:52

#	Program:	corina 3.48 0006  22.01.2010

@<TRIPOS>MOLECULE
12005304
  54   57    0    0    0
SMALL
NO_CHARGES


@<TRIPOS>ATOM
   1 S1             0.2975     0.9794    -0.3135 S.o2    
   2 O2            -4.0139     3.4041    -7.3514 O.2     
   3 O3             0.3497    -0.4358    -0.4297 O.2     
   4 O4             1.4565     1.8015    -0.3016 O.2     
   5 N5            -2.3836     4.8476    -7.7880 N.am    
   6 N6            -0.6443     1.5170    -1.5650 N.am    
   7 C7            -2.8094     5.0321    -9.1853 C.3     
   8 C8            -3.3262     6.4623    -9.3336 C.3     
   9 C9            -1.2548     5.6569    -7.3162 C.3     
  10 C10           -2.3680     7.4455    -8.7145 C.ar    
  11 C11           -1.4212     7.0812    -7.7831 C.ar    
  12 C12           -3.0091     3.9745    -6.9738 C.2     
  13 C13           -2.4614     8.7735    -9.1121 C.ar    
  14 C14           -0.5778     8.0422    -7.2432 C.ar    
  15 C15           -2.4733     3.7106    -5.6214 C.ar    
  16 C16           -1.6201     9.7271    -8.5776 C.ar    
  17 C17           -0.6754     9.3611    -7.6373 C.ar    
  18 C18           -1.4695     3.2164    -3.0882 C.ar    
  19 C19           -3.3406     3.4080    -4.5705 C.ar    
  20 C20           -1.0974     3.7574    -5.3912 C.ar    
  21 C21           -0.9233     2.9479    -1.7096 C.3     
  22 C22           -2.8340     3.1628    -3.3109 C.ar    
  23 C23           -0.6039     3.5102    -4.1268 C.ar    
  24 C24           -0.5724     1.3243     1.1795 C.ar    
  25 C25           -1.4438     0.3880     1.7037 C.ar    
  26 C26           -0.3793     2.5289     1.8295 C.ar    
  27 C27           -1.9372     1.8653     3.5222 C.ar    
  28 C28           -2.1264     0.6586     2.8750 C.ar    
  29 C29           -1.0618     2.7995     3.0008 C.ar    
  30 C30           -2.6816     2.1605     4.7988 C.3     
  31 H31           -1.9622     4.8750    -9.8529 H       
  32 H32           -3.6045     4.3260    -9.4249 H       
  33 H33           -3.4426     6.6934   -10.3924 H       
  34 H34           -4.2946     6.5465    -8.8404 H       
  35 H35           -1.2221     5.6337    -6.2269 H       
  36 H36           -0.3254     5.2506    -7.7151 H       
  37 H37           -3.1990     9.0616    -9.8465 H       
  38 H38            0.1604     7.7556    -6.5087 H       
  39 H39           -1.6994    10.7570    -8.8929 H       
  40 H40           -0.0167    10.1042    -7.2127 H       
  41 H41           -4.4059     3.3662    -4.7430 H       
  42 H42           -0.4206     3.9862    -6.2011 H       
  43 H43           -1.6565     3.2524    -0.9627 H       
  44 H44           -0.0028     3.5139    -1.5669 H       
  45 H45           -3.5043     2.9326    -2.4960 H       
  46 H46            0.4601     3.5509    -3.9463 H       
  47 H47           -1.0112     0.8845    -2.2023 H       
  48 H48           -1.5916    -0.5548     1.1981 H       
  49 H49            0.3051     3.2585     1.4224 H       
  50 H50           -2.8077    -0.0727     3.2842 H       
  51 H51           -0.9107     3.7405     3.5088 H       
  52 H52           -2.0924     1.8196     5.6501 H       
  53 H53           -2.8510     3.2341     4.8807 H       
  54 H54           -3.6399     1.6412     4.7889 H       
@<TRIPOS>BOND
   1    1    3 2
   2    1    4 2
   3    1    6 am
   4    1   24 1
   5    2   12 2
   6    5    7 1
   7    5    9 1
   8    5   12 am
   9    6   21 1
  10    6   47 1
  11    7    8 1
  12    7   31 1
  13    7   32 1
  14    8   10 1
  15    8   33 1
  16    8   34 1
  17    9   11 1
  18    9   35 1
  19    9   36 1
  20   10   11 ar
  21   10   13 ar
  22   11   14 ar
  23   12   15 1
  24   13   16 ar
  25   13   37 1
  26   14   17 ar
  27   14   38 1
  28   15   19 ar
  29   15   20 ar
  30   16   17 ar
  31   16   39 1
  32   17   40 1
  33   18   21 1
  34   18   22 ar
  35   18   23 ar
  36   19   22 ar
  37   19   41 1
  38   20   23 ar
  39   20   42 1
  40   21   43 1
  41   21   44 1
  42   22   45 1
  43   23   46 1
  44   24   25 ar
  45   24   26 ar
  46   25   28 ar
  47   25   48 1
  48   26   29 ar
  49   26   49 1
  50   27   28 ar
  51   27   29 ar
  52   27   30 1
  53   28   50 1
  54   29   51 1
  55   30   52 1
  56   30   53 1
  57   30   54 1

#	End of record

#	Name: 12005279
#	Creating user name:	landrgr1
#	Creation time:	28. 01. 2015 13:52

#	Modifying user name:	landrgr1
#	Modification time:	28. 01. 2015 13:52

#	Program:	corina 3.48 0006  22.01.2010

@<TRIPOS>MOLECULE
12005279
  44   46    0    0    0
SMALL
NO_CHARGES


@<TRIPOS>ATOM
   1 O1            -2.9442    -4.9908     3.1207 O.2     
   2 O2            -3.2909    -2.4559     0.7248 O.2     
   3 O3            -0.0161     1.3388     0.0094 O.3     
   4 O4           -11.5977    -0.9033     3.2805 O.3     
   5 N5            -4.2159    -3.1719     3.0722 N.am    
   6 N6            -5.4954    -2.6102     3.0875 N.2     
   7 N7            -1.5874    -1.2008     1.3915 N.am    
   8 C8            -6.4216    -4.7708     3.7399 C.3     
   9 C9            -5.2664    -5.4039     2.9613 C.3     
  10 C10           -6.5399    -3.3142     3.3770 C.2     
  11 C11           -4.0557    -4.5089     3.0574 C.2     
  12 C12           -3.0393    -2.2990     3.0661 C.3     
  13 C13           -7.8704    -2.6798     3.3520 C.ar    
  14 C14           -2.6493    -1.9916     1.6433 C.2     
  15 C15           -7.9966    -1.3289     3.0176 C.ar    
  16 C16           -9.0098    -3.4291     3.6569 C.ar    
  17 C17           -1.2082    -0.9019     0.0083 C.3     
  18 C18           -9.2423    -0.7403     2.9950 C.ar    
  19 C19          -10.2515    -2.8321     3.6318 C.ar    
  20 C20          -10.3716    -1.4877     3.3040 C.ar    
  21 C21            0.0021    -0.0041     0.0020 C.2     
  22 C22            1.2839    -0.4117    -0.0124 C.2     
  23 C23            2.0843     0.7537    -0.0138 C.2     
  24 C24            1.2438     1.8038    -0.0001 C.2     
  25 C25          -12.7165    -1.7294     3.6087 C.3     
  26 H26           -7.3508    -5.2832     3.4908 H       
  27 H27           -6.2322    -4.8639     4.8093 H       
  28 H28           -5.0324    -6.3801     3.3862 H       
  29 H29           -5.5519    -5.5195     1.9157 H       
  30 H30           -3.2728    -1.3708     3.5875 H       
  31 H31           -2.2125    -2.8003     3.5693 H       
  32 H32           -7.1190    -0.7469     2.7775 H       
  33 H33           -8.9175    -4.4746     3.9116 H       
  34 H34           -1.0742    -0.8294     2.1261 H       
  35 H35           -0.9747    -1.8302    -0.5131 H       
  36 H36           -2.0351    -0.4007    -0.4949 H       
  37 H37           -9.3407     0.3038     2.7370 H       
  38 H38          -11.1328    -3.4105     3.8670 H       
  39 H39            1.6343    -1.4332    -0.0207 H       
  40 H40            3.1636     0.7932    -0.0236 H       
  41 H41            1.5330     2.8444     0.0027 H       
  42 H42          -13.6320    -1.1406     3.5519 H       
  43 H43          -12.7742    -2.5595     2.9046 H       
  44 H44          -12.5968    -2.1183     4.6199 H       
@<TRIPOS>BOND
   1    1   11 2
   2    2   14 2
   3    3   21 1
   4    3   24 1
   5    4   20 1
   6    4   25 1
   7    5    6 1
   8    5   11 am
   9    5   12 1
  10    6   10 2
  11    7   14 am
  12    7   17 1
  13    7   34 1
  14    8    9 1
  15    8   10 1
  16    8   26 1
  17    8   27 1
  18    9   11 1
  19    9   28 1
  20    9   29 1
  21   10   13 1
  22   12   14 1
  23   12   30 1
  24   12   31 1
  25   13   15 ar
  26   13   16 ar
  27   15   18 ar
  28   15   32 1
  29   16   19 ar
  30   16   33 1
  31   17   21 1
  32   17   35 1
  33   17   36 1
  34   18   20 ar
  35   18   37 1
  36   19   20 ar
  37   19   38 1
  38   21   22 2
  39   22   23 1
  40   22   39 1
  41   23   24 2
  42   23   40 1
  43   24   41 1
  44   25   42 1
  45   25   43 1
  46   25   44 1

#	End of record

#	Name: 12005225
#	Creating user name:	landrgr1
#	Creation time:	28. 01. 2015 13:52

#	Modifying user name:	landrgr1
#	Modification time:	28. 01. 2015 13:52

#	Program:	corina 3.48 0006  22.01.2010

@<TRIPOS>MOLECULE
12005225
  56   60    0    0    0
SMALL
NO_CHARGES


@<TRIPOS>ATOM
   1 S1            -0.0217     1.7477     0.0117 S.3     
   2 O2            -1.0933    -2.0601     0.0006 O.2     
   3 O3             6.8004     4.9483    -0.0377 O.3     
   4 N4            -7.3165    -0.2610     0.0695 N.3     
   5 N5            -2.4227    -0.2801     0.0233 N.am    
   6 N6             2.5185     2.9220    -0.0063 N.ar    
   7 C7            -8.5333    -1.0556    -0.1622 C.3     
   8 C8            -7.2125     0.8098    -0.9269 C.3     
   9 C9            -9.7465    -0.2098     0.2255 C.3     
  10 C10           -6.1201    -1.1132     0.0533 C.3     
  11 C11           -8.4842     1.6158    -0.9693 C.ar    
  12 C12           -9.6641     1.1418    -0.4363 C.ar    
  13 C13           -4.8679    -0.2342     0.0466 C.3     
  14 C14           -8.4526     2.8680    -1.5648 C.ar    
  15 C15           -3.6218    -1.1218     0.0298 C.3     
  16 C16          -10.8117     1.9168    -0.5025 C.ar    
  17 C17           -9.5956     3.6396    -1.6288 C.ar    
  18 C18          -10.7788     3.1626    -1.0970 C.ar    
  19 C19           -1.2006    -0.8483     0.0085 C.2     
  20 C20            0.0021    -0.0041     0.0020 C.2     
  21 C21            2.2812     0.5460    -0.0168 C.ar    
  22 C22            1.2498    -0.4742    -0.0124 C.2     
  23 C23            1.7378     1.8451    -0.0046 C.ar    
  24 C24            4.4854     1.5167    -0.0335 C.ar    
  25 C25            3.6782     0.3787    -0.0314 C.ar    
  26 C26            3.8454     2.8347    -0.0194 C.ar    
  27 C27            5.8907     1.4356    -0.0474 C.ar    
  28 C28            4.6615     3.9783    -0.0216 C.ar    
  29 C29            6.0196     3.8373    -0.0357 C.ar    
  30 C30            6.6266     2.5776    -0.0487 C.ar    
  31 C31            8.2151     4.7471    -0.0527 C.3     
  32 H32           -8.5980    -1.3275    -1.2157 H       
  33 H33           -8.5043    -1.9568     0.4504 H       
  34 H34           -6.3799     1.4637    -0.6675 H       
  35 H35           -7.0305     0.3721    -1.9085 H       
  36 H36          -10.6574    -0.7150    -0.0956 H       
  37 H37           -9.7677    -0.0821     1.3078 H       
  38 H38           -6.1139    -1.7476     0.9397 H       
  39 H39           -6.1307    -1.7374    -0.8402 H       
  40 H40           -4.8740     0.4002    -0.8398 H       
  41 H41           -4.8573     0.3900     0.9401 H       
  42 H42           -3.6324    -1.7460    -0.8638 H       
  43 H43           -3.6156    -1.7562     0.9161 H       
  44 H44           -7.5285     3.2417    -1.9804 H       
  45 H45          -11.7363     1.5441    -0.0871 H       
  46 H46           -9.5652     4.6141    -2.0935 H       
  47 H47          -11.6755     3.7625    -1.1468 H       
  48 H48           -2.5083     0.6861     0.0296 H       
  49 H49            1.4747    -1.5305    -0.0199 H       
  50 H50            4.1159    -0.6086    -0.0405 H       
  51 H51            6.3801     0.4729    -0.0566 H       
  52 H52            4.2174     4.9627    -0.0125 H       
  53 H53            7.7045     2.5110    -0.0590 H       
  54 H54            8.7196     5.7133    -0.0527 H       
  55 H55            8.5112     4.1826     0.8315 H       
  56 H56            8.4936     4.1918    -0.9484 H       
@<TRIPOS>BOND
   1    1   20 1
   2    1   23 1
   3    2   19 2
   4    3   29 1
   5    3   31 1
   6    4    7 1
   7    4    8 1
   8    4   10 1
   9    5   15 1
  10    5   19 am
  11    5   48 1
  12    6   23 ar
  13    6   26 ar
  14    7    9 1
  15    7   32 1
  16    7   33 1
  17    8   11 1
  18    8   34 1
  19    8   35 1
  20    9   12 1
  21    9   36 1
  22    9   37 1
  23   10   13 1
  24   10   38 1
  25   10   39 1
  26   11   12 ar
  27   11   14 ar
  28   12   16 ar
  29   13   15 1
  30   13   40 1
  31   13   41 1
  32   14   17 ar
  33   14   44 1
  34   15   42 1
  35   15   43 1
  36   16   18 ar
  37   16   45 1
  38   17   18 ar
  39   17   46 1
  40   18   47 1
  41   19   20 1
  42   20   22 2
  43   21   22 1
  44   21   23 ar
  45   21   25 ar
  46   22   49 1
  47   24   25 ar
  48   24   26 ar
  49   24   27 ar
  50   25   50 1
  51   26   28 ar
  52   27   30 ar
  53   27   51 1
  54   28   29 ar
  55   28   52 1
  56   29   30 ar
  57   30   53 1
  58   31   54 1
  59   31   55 1
  60   31   56 1

#	End of record

#	Name: 12005223
#	Creating user name:	landrgr1
#	Creation time:	28. 01. 2015 13:52

#	Modifying user name:	landrgr1
#	Modification time:	28. 01. 2015 13:52

#	Program:	corina 3.48 0006  22.01.2010

@<TRIPOS>MOLECULE
12005223
  60   64    0    0    0
SMALL
NO_CHARGES


@<TRIPOS>ATOM
   1 O1            -2.2346     1.5578     0.0212 O.2     
   2 O2            -2.5959     5.6748    -2.1550 O.2     
   3 O3            -2.5855     5.6963     2.2780 O.2     
   4 O4             0.8913     5.6541    -5.1986 O.2     
   5 O5             2.6299     6.8465    -5.2767 O.2     
   6 N6            -0.0179     1.4682     0.0101 N.am    
   7 N7            -2.5859     5.6498     0.0451 N.am    
   8 N8            -2.5719     7.6563    -1.1949 N.am    
   9 N9             1.4801     6.6808    -4.9108 N.pl3   
  10 C10            0.0021    -0.0041     0.0020 C.3     
  11 C11            1.2763     2.1586     0.0015 C.3     
  12 C12            0.6250    -0.4579    -1.3172 C.3     
  13 C13            2.1926     1.5068    -1.0036 C.ar    
  14 C14            1.8936     0.3025    -1.6008 C.ar    
  15 C15           -1.1632     3.6606     0.0275 C.3     
  16 C16           -1.1783     2.1537     0.0194 C.2     
  17 C17           -2.6005     4.1849     0.0372 C.3     
  18 C18            3.3748     2.1609    -1.3213 C.ar    
  19 C19            2.7870    -0.2513    -2.5094 C.ar    
  20 C20           -2.5586     8.4278    -0.0418 C.ar    
  21 C21           -2.5849     6.3143    -1.1210 C.2     
  22 C22           -2.5644     7.7795     1.2059 C.ar    
  23 C23           -2.5792     6.3058     1.2259 C.2     
  24 C24           -2.5661     8.3107    -2.5056 C.3     
  25 C25            4.2584     1.6103    -2.2271 C.ar    
  26 C26            3.9636     0.3978    -2.8215 C.ar    
  27 C27           -1.1434     8.5158    -2.9584 C.ar    
  28 C28           -2.5450     9.8128    -0.0946 C.ar    
  29 C29           -2.5510     8.5277     2.3802 C.ar    
  30 C30           -2.5321    10.5434     1.0773 C.ar    
  31 C31           -2.5320     9.9052     2.3078 C.ar    
  32 C32           -0.5069     7.5390    -3.7008 C.ar    
  33 C33           -0.4769     9.6834    -2.6361 C.ar    
  34 C34            0.7983     7.7271    -4.1162 C.ar    
  35 C35            0.8279     9.8714    -3.0515 C.ar    
  36 C36            1.4665     8.8918    -3.7891 C.ar    
  37 H37            0.5998    -0.3694     0.8371 H       
  38 H38           -1.0154    -0.3871     0.0805 H       
  39 H39            1.1278     3.2044    -0.2678 H       
  40 H40            1.7253     2.1002     0.9930 H       
  41 H41            0.8506    -1.5227    -1.2596 H       
  42 H42           -0.0845    -0.2859    -2.1266 H       
  43 H43           -0.6415     4.0139     0.9169 H       
  44 H44           -0.6500     4.0236    -0.8630 H       
  45 H45           -3.1137     3.8219     0.9277 H       
  46 H46           -3.1222     3.8316    -0.8522 H       
  47 H47            3.6047     3.1082    -0.8564 H       
  48 H48            2.5585    -1.1985    -2.9752 H       
  49 H49           -3.0903     7.6838    -3.2270 H       
  50 H50           -3.0667     9.2762    -2.4319 H       
  51 H51            5.1764     2.1246    -2.4705 H       
  52 H52            4.6527    -0.0405    -3.5282 H       
  53 H53           -2.5442    10.3188    -1.0487 H       
  54 H54           -2.5558     8.0334     3.3404 H       
  55 H55           -2.5215    11.6225     1.0346 H       
  56 H56           -2.5215    10.4902     3.2157 H       
  57 H57           -1.0290     6.6287    -3.9560 H       
  58 H58           -0.9758    10.4486    -2.0602 H       
  59 H59            1.3485    10.7836    -2.8000 H       
  60 H60            2.4862     9.0386    -4.1134 H       
@<TRIPOS>BOND
   1    1   16 2
   2    2   21 2
   3    3   23 2
   4    4    9 2
   5    5    9 2
   6    6   10 1
   7    6   11 1
   8    6   16 am
   9    7   17 1
  10    7   21 am
  11    7   23 am
  12    8   20 1
  13    8   21 am
  14    8   24 1
  15    9   34 1
  16   10   12 1
  17   10   37 1
  18   10   38 1
  19   11   13 1
  20   11   39 1
  21   11   40 1
  22   12   14 1
  23   12   41 1
  24   12   42 1
  25   13   14 ar
  26   13   18 ar
  27   14   19 ar
  28   15   16 1
  29   15   17 1
  30   15   43 1
  31   15   44 1
  32   17   45 1
  33   17   46 1
  34   18   25 ar
  35   18   47 1
  36   19   26 ar
  37   19   48 1
  38   20   22 ar
  39   20   28 ar
  40   22   23 1
  41   22   29 ar
  42   24   27 1
  43   24   49 1
  44   24   50 1
  45   25   26 ar
  46   25   51 1
  47   26   52 1
  48   27   32 ar
  49   27   33 ar
  50   28   30 ar
  51   28   53 1
  52   29   31 ar
  53   29   54 1
  54   30   31 ar
  55   30   55 1
  56   31   56 1
  57   32   34 ar
  58   32   57 1
  59   33   35 ar
  60   33   58 1
  61   34   36 ar
  62   35   36 ar
  63   35   59 1
  64   36   60 1

#	End of record

#	Name: 12005220
#	Creating user name:	landrgr1
#	Creation time:	28. 01. 2015 13:52

#	Modifying user name:	landrgr1
#	Modification time:	28. 01. 2015 13:52

#	Program:	corina 3.48 0006  22.01.2010

@<TRIPOS>MOLECULE
12005220
  44   47    0    0    0
SMALL
NO_CHARGES


@<TRIPOS>ATOM
   1 S1            -0.0218     1.7582     0.0117 S.3     
   2 O2             8.3924     4.5473    -3.5882 O.3     
   3 O3             6.5622     2.7990     0.7989 O.2     
   4 N4             2.0669     1.0106     2.0885 N.2     
   5 N5             6.3176     3.8914    -1.1197 N.am    
   6 C6             1.3077     0.0074     2.1326 C.2     
   7 C7             0.6405    -0.6963     1.0415 C.ar    
   8 C8             2.5278     1.7372     1.0388 C.ar    
   9 C9             0.0021    -0.0041     0.0020 C.ar    
  10 C10            1.6935     2.1655    -0.0025 C.ar    
  11 C11            1.0515    -0.5475     3.5101 C.3     
  12 C12            4.3923     2.8192    -0.0603 C.ar    
  13 C13            3.8825     2.0684     1.0003 C.ar    
  14 C14            2.2073     2.9130    -1.0543 C.ar    
  15 C15            0.6363    -2.0966     1.0245 C.ar    
  16 C16            3.5457     3.2412    -1.0891 C.ar    
  17 C17           -0.6088    -0.6992    -1.0276 C.ar    
  18 C18            1.8112     0.2852     4.5447 C.3     
  19 C19            5.8251     3.1665    -0.0958 C.2     
  20 C20            0.0193    -2.7756    -0.0054 C.ar    
  21 C21           -0.5991    -2.0830    -1.0312 C.ar    
  22 C22            7.7410     4.2365    -1.1549 C.3     
  23 C23            8.0316     5.0440    -2.3937 C.2     
  24 C24            7.9741     6.3844    -2.4904 C.2     
  25 C25            8.3205     6.7143    -3.8209 C.2     
  26 C26            8.5689     5.5557    -4.4576 C.2     
  27 H27           -0.0164    -0.5077     3.7250 H       
  28 H28            1.3928    -1.5817     3.5545 H       
  29 H29            4.5389     1.7432     1.7940 H       
  30 H30            1.5541     3.2389    -1.8502 H       
  31 H31            1.1169    -2.6463     1.8202 H       
  32 H32            3.9391     3.8233    -1.9093 H       
  33 H33           -1.0938    -0.1611    -1.8286 H       
  34 H34            1.4699     1.3194     4.5003 H       
  35 H35            1.6259    -0.1161     5.5411 H       
  36 H36            2.8791     0.2455     4.3299 H       
  37 H37            0.0200    -3.8555    -0.0117 H       
  38 H38            7.9948     4.8224    -0.2715 H       
  39 H39            8.3360     3.3233    -1.1685 H       
  40 H40           -1.0754    -2.6234    -1.8359 H       
  41 H41            5.7297     4.1846    -1.8333 H       
  42 H42            7.7129     7.0759    -1.7030 H       
  43 H43            8.3749     7.7061    -4.2447 H       
  44 H44            8.8609     5.4537    -5.4924 H       
@<TRIPOS>BOND
   1    1    9 1
   2    1   10 1
   3    2   23 1
   4    2   26 1
   5    3   19 2
   6    4    6 2
   7    4    8 1
   8    5   19 am
   9    5   22 1
  10    5   41 1
  11    6    7 1
  12    6   11 1
  13    7    9 ar
  14    7   15 ar
  15    8   10 ar
  16    8   13 ar
  17    9   17 ar
  18   10   14 ar
  19   11   18 1
  20   11   27 1
  21   11   28 1
  22   12   13 ar
  23   12   16 ar
  24   12   19 1
  25   13   29 1
  26   14   16 ar
  27   14   30 1
  28   15   20 ar
  29   15   31 1
  30   16   32 1
  31   17   21 ar
  32   17   33 1
  33   18   34 1
  34   18   35 1
  35   18   36 1
  36   20   21 ar
  37   20   37 1
  38   21   40 1
  39   22   23 1
  40   22   38 1
  41   22   39 1
  42   23   24 2
  43   24   25 1
  44   24   42 1
  45   25   26 2
  46   25   43 1
  47   26   44 1

#	End of record

#	Name: 12005215
#	Creating user name:	landrgr1
#	Creation time:	28. 01. 2015 13:52

#	Modifying user name:	landrgr1
#	Modification time:	28. 01. 2015 13:52

#	Program:	corina 3.48 0006  22.01.2010

@<TRIPOS>MOLECULE
12005215
  43   45    0    0    0
SMALL
NO_CHARGES


@<TRIPOS>ATOM
   1 F1             3.5567     3.5324    -1.2398 F       
   2 O2             2.2299     1.4198    -1.0683 O.2     
   3 O3            -2.2896     0.1918    -0.4090 O.2     
   4 N4             0.0339     1.3621    -0.7415 N.am    
   5 N5            -2.9420    -2.3858    -0.3428 N.pl3   
   6 N6            -1.6330    -1.9238    -0.5324 N.am    
   7 N7            -6.2870    -5.4692     0.0527 N.2     
   8 N8            -6.6521    -4.2587     0.2536 N.2     
   9 C9            -4.9907    -5.5483    -0.1945 C.2     
  10 C10           -4.2040    -6.7704    -0.4742 C.ar    
  11 C11           -4.4953    -4.1632    -0.1325 C.2     
  12 C12            0.0258    -0.1028    -0.7579 C.3     
  13 C13           -3.1915    -3.7031    -0.3214 C.2     
  14 C14           -4.6172    -8.0016     0.0357 C.ar    
  15 C15           -3.0492    -6.6970    -1.2539 C.ar    
  16 C16            1.2001     3.5084    -0.8896 C.ar    
  17 C17           -5.6581    -3.4081     0.1648 C.2     
  18 C18            1.1920     2.0316    -0.9061 C.2     
  19 C19           -1.3822    -0.5997    -0.5539 C.2     
  20 C20           -3.8798    -9.1372    -0.2290 C.ar    
  21 C21           -2.3205    -7.8399    -1.5114 C.ar    
  22 C22            2.3999     4.2066    -1.0601 C.ar    
  23 C23            0.0091     4.2145    -0.7094 C.ar    
  24 C24           -2.7324    -9.0569    -0.9981 C.ar    
  25 C25            2.3981     5.5893    -1.0437 C.ar    
  26 C26            0.0235     5.5934    -0.6954 C.ar    
  27 C27            1.2145     6.2793    -0.8593 C.ar    
  28 H28            0.4008    -0.4574    -1.7180 H       
  29 H29            0.6633    -0.4786     0.0424 H       
  30 H30           -2.3835    -4.4079    -0.4504 H       
  31 H31           -5.5123    -8.0655     0.6368 H       
  32 H32           -2.7266    -5.7476    -1.6552 H       
  33 H33           -0.7949     1.8503    -0.6161 H       
  34 H34           -5.7143    -2.3372     0.2932 H       
  35 H35           -3.6677    -1.7527    -0.2269 H       
  36 H36           -0.9072    -2.5568    -0.6483 H       
  37 H37           -4.1986   -10.0908     0.1651 H       
  38 H38           -1.4266    -7.7845    -2.1150 H       
  39 H39           -0.9216     3.6819    -0.5815 H       
  40 H40           -2.1582    -9.9485    -1.2019 H       
  41 H41            3.3232     6.1311    -1.1748 H       
  42 H42           -0.8976     6.1398    -0.5563 H       
  43 H43            1.2185     7.3593    -0.8473 H       
@<TRIPOS>BOND
   1    1   22 1
   2    2   18 2
   3    3   19 2
   4    4   12 1
   5    4   18 am
   6    4   33 1
   7    5    6 1
   8    5   13 1
   9    5   35 1
  10    6   19 am
  11    6   36 1
  12    7    8 1
  13    7    9 2
  14    8   17 2
  15    9   10 1
  16    9   11 1
  17   10   14 ar
  18   10   15 ar
  19   11   13 2
  20   11   17 1
  21   12   19 1
  22   12   28 1
  23   12   29 1
  24   13   30 1
  25   14   20 ar
  26   14   31 1
  27   15   21 ar
  28   15   32 1
  29   16   18 1
  30   16   22 ar
  31   16   23 ar
  32   17   34 1
  33   20   24 ar
  34   20   37 1
  35   21   24 ar
  36   21   38 1
  37   22   25 ar
  38   23   26 ar
  39   23   39 1
  40   24   40 1
  41   25   27 ar
  42   25   41 1
  43   26   27 ar
  44   26   42 1
  45   27   43 1

#	End of record

#	Name: 12005214
#	Creating user name:	landrgr1
#	Creation time:	28. 01. 2015 13:52

#	Modifying user name:	landrgr1
#	Modification time:	28. 01. 2015 13:52

#	Program:	corina 3.48 0006  22.01.2010

@<TRIPOS>MOLECULE
12005214
  38   41    0    0    0
SMALL
NO_CHARGES


@<TRIPOS>ATOM
   1 S1            -0.0808     1.5700    -0.3984 S.3     
   2 S2             1.7200    -2.1526    -0.2141 S.3     
   3 O3             6.2808     4.4814    -3.0345 O.3     
   4 O4             8.2665     2.3687    -0.2815 O.2     
   5 O5             4.2898     3.9206    -0.1585 O.2     
   6 N6             2.1496     0.5350    -0.1925 N.pl3   
   7 N7             2.2976     2.9291    -0.3093 N.2     
   8 N8            -0.0156    -0.1262    -0.3609 N.2     
   9 N9             4.0921    -0.6807     0.4886 N.2     
  10 C10            4.3174     1.5850    -0.4507 C.2     
  11 C11            3.5398     0.3916    -0.0122 C.2     
  12 C12            6.2635     2.6579    -1.5059 C.2     
  13 C13            5.5902     1.4768    -0.9702 C.2     
  14 C14            1.6140     1.7983    -0.2968 C.2     
  15 C15            8.0219     4.4386    -1.3942 C.ar    
  16 C16            1.2320    -0.4602    -0.2604 C.2     
  17 C17            7.5845     3.0857    -0.9912 C.2     
  18 C18            7.3190     5.0840    -2.4244 C.ar    
  19 C19            3.6412     2.8958    -0.2957 C.2     
  20 C20            5.6894     3.4138    -2.5108 C.2     
  21 C21            9.1003     5.0647    -0.7732 C.ar    
  22 C22            7.7130     6.3616    -2.8099 C.ar    
  23 C23            0.1000    -2.9503    -0.3384 C.3     
  24 C24            9.4745     6.3296    -1.1738 C.ar    
  25 C25            8.7802     6.9728    -2.1873 C.ar    
  26 C26            0.2769    -4.4699    -0.3174 C.3     
  27 H27            6.0894     0.5192    -0.9812 H       
  28 H28            4.7189     3.1242    -2.8856 H       
  29 H29            9.6396     4.5625     0.0163 H       
  30 H30            7.1822     6.8748    -3.5981 H       
  31 H31           -0.5208    -2.6452     0.5040 H       
  32 H32           -0.3807    -2.6533    -1.2704 H       
  33 H33           10.3096     6.8209    -0.6967 H       
  34 H34            9.0796     7.9645    -2.4930 H       
  35 H35            3.5388    -1.4306     0.7579 H       
  36 H36            0.7576    -4.7670     0.6147 H       
  37 H37           -0.6987    -4.9503    -0.3922 H       
  38 H38            0.8977    -4.7751    -1.1597 H       
@<TRIPOS>BOND
   1    1    8 1
   2    1   14 1
   3    2   16 1
   4    2   23 1
   5    3   18 1
   6    3   20 1
   7    4   17 2
   8    5   19 2
   9    6   11 1
  10    6   14 1
  11    6   16 1
  12    7   14 2
  13    7   19 1
  14    8   16 2
  15    9   11 2
  16    9   35 1
  17   10   11 1
  18   10   13 2
  19   10   19 1
  20   12   13 1
  21   12   17 1
  22   12   20 2
  23   13   27 1
  24   15   17 1
  25   15   18 ar
  26   15   21 ar
  27   18   22 ar
  28   20   28 1
  29   21   24 ar
  30   21   29 1
  31   22   25 ar
  32   22   30 1
  33   23   26 1
  34   23   31 1
  35   23   32 1
  36   24   25 ar
  37   24   33 1
  38   25   34 1
  39   26   36 1
  40   26   37 1
  41   26   38 1

#	End of record

#	Name: 12005146
#	Creating user name:	landrgr1
#	Creation time:	28. 01. 2015 13:52

#	Modifying user name:	landrgr1
#	Modification time:	28. 01. 2015 13:52

#	Program:	corina 3.48 0006  22.01.2010

@<TRIPOS>MOLECULE
12005146
  59   61    0    0    0
SMALL
NO_CHARGES


@<TRIPOS>ATOM
   1 O1            -0.3477     1.6449    -0.0197 O.3     
   2 O2            -1.4038    -6.4620    -0.3871 O.3     
   3 O3            -0.1188    -1.4299    -2.4867 O.2     
   4 O4            -1.9112    -5.3095    -2.2175 O.2     
   5 O5            -2.7430    -0.1476    -8.0686 O.3     
   6 O6             1.8503     1.7770     0.2640 O.2     
   7 O7             0.7178     7.9125    -0.5989 O.3     
   8 N8            -1.5382    -1.8725     0.1547 N.pl3   
   9 N9            -2.0608    -2.4556    -2.1548 N.am    
  10 N10           -1.2173    -2.5809     1.3176 N.2     
  11 C11           -1.6439    -0.4157     0.0417 C.3     
  12 C12           -1.7282    -2.7557    -0.8457 C.2     
  13 C13           -1.5267    -4.0271    -0.3140 C.2     
  14 C14           -0.2514     0.2072     0.1592 C.3     
  15 C15           -1.2122    -3.8571     1.0548 C.2     
  16 C16           -1.2142    -1.7353    -2.9170 C.2     
  17 C17           -1.6269    -5.3009    -1.0353 C.2     
  18 C18           -1.6167    -1.3173    -4.2736 C.ar    
  19 C19            0.7989     2.3489     0.0550 C.2     
  20 C20           -0.7403    -0.5704    -5.0656 C.ar    
  21 C21           -2.8732    -1.6722    -4.7722 C.ar    
  22 C22            0.7775     3.8134    -0.1169 C.ar    
  23 C23           -1.1198    -0.1823    -6.3310 C.ar    
  24 C24           -3.2450    -1.2801    -6.0387 C.ar    
  25 C25           -2.3726    -0.5324    -6.8210 C.ar    
  26 C26           -1.5203    -7.6834    -1.1636 C.3     
  27 C27            1.9658     4.5455    -0.0397 C.ar    
  28 C28           -0.4304     4.4726    -0.3631 C.ar    
  29 C29            1.9415     5.9126    -0.2012 C.ar    
  30 C30           -0.4458     5.8400    -0.5235 C.ar    
  31 C31            0.7375     6.5649    -0.4407 C.ar    
  32 C32           -1.2343    -8.8882    -0.2650 C.3     
  33 C33           -4.0440    -0.5413    -8.5095 C.3     
  34 C34           -0.5531     8.5187    -0.8422 C.3     
  35 H35           -2.0775    -0.1567    -0.9242 H       
  36 H36           -2.2809    -0.0347     0.8399 H       
  37 H37            0.3999    -0.2116    -0.6079 H       
  38 H38            0.1616    -0.0094     1.1444 H       
  39 H39           -2.9033    -2.7635    -2.5240 H       
  40 H40           -0.9981    -4.6480     1.7585 H       
  41 H41            0.2331    -0.2976    -4.6855 H       
  42 H42           -3.5514    -2.2535    -4.1651 H       
  43 H43           -0.4433     0.3952    -6.9436 H       
  44 H44           -4.2156    -1.5543    -6.4249 H       
  45 H45           -2.5298    -7.7625    -1.5671 H       
  46 H46           -0.8020    -7.6628    -1.9832 H       
  47 H47            2.9016     4.0396     0.1467 H       
  48 H48           -1.3500     3.9101    -0.4279 H       
  49 H49            2.8591     6.4791    -0.1414 H       
  50 H50           -1.3785     6.3500    -0.7141 H       
  51 H51           -1.9526    -8.9088     0.5546 H       
  52 H52           -1.3218    -9.8051    -0.8479 H       
  53 H53           -0.2249    -8.8091     0.1385 H       
  54 H54           -4.7962    -0.1252    -7.8392 H       
  55 H55           -4.2129    -0.1701    -9.5203 H       
  56 H56           -4.1154    -1.6289    -8.5052 H       
  57 H57           -0.9813     8.1101    -1.7576 H       
  58 H58           -1.2203     8.3122    -0.0053 H       
  59 H59           -0.4273     9.5960    -0.9494 H       
@<TRIPOS>BOND
   1    1   14 1
   2    1   19 1
   3    2   17 1
   4    2   26 1
   5    3   16 2
   6    4   17 2
   7    5   25 1
   8    5   33 1
   9    6   19 2
  10    7   31 1
  11    7   34 1
  12    8   10 1
  13    8   11 1
  14    8   12 1
  15    9   12 1
  16    9   16 am
  17    9   39 1
  18   10   15 2
  19   11   14 1
  20   11   35 1
  21   11   36 1
  22   12   13 2
  23   13   15 1
  24   13   17 1
  25   14   37 1
  26   14   38 1
  27   15   40 1
  28   16   18 1
  29   18   20 ar
  30   18   21 ar
  31   19   22 1
  32   20   23 ar
  33   20   41 1
  34   21   24 ar
  35   21   42 1
  36   22   27 ar
  37   22   28 ar
  38   23   25 ar
  39   23   43 1
  40   24   25 ar
  41   24   44 1
  42   26   32 1
  43   26   45 1
  44   26   46 1
  45   27   29 ar
  46   27   47 1
  47   28   30 ar
  48   28   48 1
  49   29   31 ar
  50   29   49 1
  51   30   31 ar
  52   30   50 1
  53   32   51 1
  54   32   52 1
  55   32   53 1
  56   33   54 1
  57   33   55 1
  58   33   56 1
  59   34   57 1
  60   34   58 1
  61   34   59 1

#	End of record

#	Name: 12005067
#	Creating user name:	landrgr1
#	Creation time:	28. 01. 2015 13:52

#	Modifying user name:	landrgr1
#	Modification time:	28. 01. 2015 13:52

#	Program:	corina 3.48 0006  22.01.2010

@<TRIPOS>MOLECULE
12005067
  45   47    0    0    0
SMALL
NO_CHARGES


@<TRIPOS>ATOM
   1 Cl1           -6.6386     2.2739     3.4391 Cl      
   2 S2            -1.2787     0.8975     0.5059 S.o2    
   3 O3            -1.1681    -0.5144     0.6226 O.2     
   4 O4            -0.3205     1.7593     1.1043 O.2     
   5 O5            -3.1665     2.7465    -2.2878 O.2     
   6 O6            -5.0152     8.6186     1.4934 O.3     
   7 O7            -3.7923     7.1691     2.6466 O.2     
   8 N8            -2.0576     3.7263    -0.6348 N.am    
   9 C9            -1.5722     1.3725    -1.2200 C.3     
  10 C10           -0.4920     1.0176    -2.2438 C.3     
  11 C11           -1.8152     0.2495    -2.2303 C.3     
  12 C12           -2.3231     2.6637    -1.4201 C.2     
  13 C13           -2.7867     1.2848     1.3310 C.ar    
  14 C14           -3.8420     0.3924     1.2967 C.ar    
  15 C15           -2.9120     2.4783     2.0171 C.ar    
  16 C16           -2.8608     4.8700    -0.7098 C.ar    
  17 C17           -5.0251     0.6957     1.9438 C.ar    
  18 C18           -4.0943     2.7823     2.6653 C.ar    
  19 C19           -5.1529     1.8924     2.6262 C.ar    
  20 C20           -3.1391     5.5980     0.4366 C.ar    
  21 C21           -3.3746     5.2790    -1.9344 C.ar    
  22 C22           -3.9399     6.7375     0.3564 C.ar    
  23 C23           -4.1679     6.4086    -2.0143 C.ar    
  24 C24           -4.4557     7.1370    -0.8785 C.ar    
  25 C25           -4.2416     7.5187     1.5736 C.2     
  26 C26           -5.2699     9.3369     2.7293 C.3     
  27 C27           -6.1601    10.5475     2.4415 C.3     
  28 H28           -0.3249     1.7177    -3.0623 H       
  29 H29            0.3949     0.4986    -1.8803 H       
  30 H30           -1.7988    -0.7747    -1.8579 H       
  31 H31           -2.5186     0.4444    -3.0399 H       
  32 H32           -1.3098     3.6985    -0.0176 H       
  33 H33           -3.7420    -0.5417     0.7640 H       
  34 H34           -2.0858     3.1733     2.0470 H       
  35 H35           -5.8497    -0.0012     1.9163 H       
  36 H36           -4.1921     3.7148     3.2013 H       
  37 H37           -2.7376     5.2838     1.3887 H       
  38 H38           -3.1532     4.7127    -2.8270 H       
  39 H39           -4.5640     6.7216    -2.9691 H       
  40 H40           -5.0761     8.0185    -0.9450 H       
  41 H41           -5.7721     8.6766     3.4364 H       
  42 H42           -4.3248     9.6738     3.1552 H       
  43 H43           -6.3513    11.0867     3.3693 H       
  44 H44           -5.6579    11.2078     1.7344 H       
  45 H45           -7.1052    10.2105     2.0157 H       
@<TRIPOS>BOND
   1    1   19 1
   2    2    3 2
   3    2    4 2
   4    2    9 1
   5    2   13 1
   6    5   12 2
   7    6   25 1
   8    6   26 1
   9    7   25 2
  10    8   12 am
  11    8   16 1
  12    8   32 1
  13    9   10 1
  14    9   11 1
  15    9   12 1
  16   10   11 1
  17   10   28 1
  18   10   29 1
  19   11   30 1
  20   11   31 1
  21   13   14 ar
  22   13   15 ar
  23   14   17 ar
  24   14   33 1
  25   15   18 ar
  26   15   34 1
  27   16   20 ar
  28   16   21 ar
  29   17   19 ar
  30   17   35 1
  31   18   19 ar
  32   18   36 1
  33   20   22 ar
  34   20   37 1
  35   21   23 ar
  36   21   38 1
  37   22   24 ar
  38   22   25 1
  39   23   24 ar
  40   23   39 1
  41   24   40 1
  42   26   27 1
  43   26   41 1
  44   26   42 1
  45   27   43 1
  46   27   44 1
  47   27   45 1

#	End of record

#	Name: 12005066
#	Creating user name:	landrgr1
#	Creation time:	28. 01. 2015 13:52

#	Modifying user name:	landrgr1
#	Modification time:	28. 01. 2015 13:52

#	Program:	corina 3.48 0006  22.01.2010

@<TRIPOS>MOLECULE
12005066
  53   56    0    0    0
SMALL
NO_CHARGES


@<TRIPOS>ATOM
   1 O1            -3.2888    -1.0328     0.7765 O.2     
   2 O2             0.7850     0.2506    -2.3270 O.3     
   3 O3            -8.2055    -1.4204     1.8530 O.2     
   4 O4            -9.2325    -3.1970     1.3639 O.2     
   5 N5            -1.4825    -5.9466    -1.9197 N.3     
   6 N6            -1.7282    -7.7853    -4.0794 N.3     
   7 N7            -2.2750    -2.7711    -0.2111 N.am    
   8 N8            -3.4735    -4.7144    -0.7268 N.2     
   9 N9            -8.2052    -2.5429     1.3803 N.pl3   
  10 C10           -0.2947    -6.5987    -2.4886 C.3     
  11 C11           -2.5222    -5.7676    -2.9427 C.3     
  12 C12           -0.6885    -7.9643    -3.0564 C.3     
  13 C13           -2.9160    -7.1332    -3.5105 C.3     
  14 C14           -1.1309    -4.6638    -1.2962 C.3     
  15 C15           -2.3698    -4.0306    -0.7171 C.2     
  16 C16           -2.0798    -9.0681    -4.7029 C.3     
  17 C17           -3.3590    -2.1590     0.3199 C.2     
  18 C18           -4.6244    -2.9073     0.3244 C.ar    
  19 C19           -4.6272    -4.2096    -0.2228 C.ar    
  20 C20           -1.0435    -2.1044    -0.2348 C.ar    
  21 C21           -5.7979    -2.3672     0.8472 C.ar    
  22 C22           -5.8143    -4.9450    -0.2326 C.ar    
  23 C23           -0.7376    -1.2476    -1.2824 C.ar    
  24 C24           -0.1292    -2.2957     0.7934 C.ar    
  25 C25           -6.9564    -3.1121     0.8257 C.ar    
  26 C26           -6.9623    -4.3936     0.2901 C.ar    
  27 C27            0.4821    -0.5890    -1.3022 C.ar    
  28 C28            1.0851    -1.6379     0.7703 C.ar    
  29 C29            1.3938    -0.7880    -0.2751 C.ar    
  30 C30            2.0594     0.8954    -2.2824 C.3     
  31 H31            0.1144    -5.9777    -3.2856 H       
  32 H32            0.4556    -6.7316    -1.7092 H       
  33 H33           -3.3959    -5.2945    -2.4943 H       
  34 H34           -2.1384    -5.1372    -3.7448 H       
  35 H35           -1.0723    -8.5947    -2.2543 H       
  36 H36            0.1852    -8.4374    -3.5048 H       
  37 H37           -3.6663    -7.0004    -4.2899 H       
  38 H38           -3.3251    -7.7542    -2.7135 H       
  39 H39           -0.4041    -4.8331    -0.5017 H       
  40 H40           -0.7009    -4.0008    -2.0469 H       
  41 H41           -2.4533    -9.7522    -3.9409 H       
  42 H42           -2.8511    -8.9068    -5.4560 H       
  43 H43           -1.1957    -9.4972    -5.1745 H       
  44 H44           -5.7989    -1.3719     1.2666 H       
  45 H45           -5.8318    -5.9415    -0.6486 H       
  46 H46           -1.4482    -1.0942    -2.0810 H       
  47 H47           -0.3680    -2.9592     1.6114 H       
  48 H48           -7.8796    -4.9637     0.2814 H       
  49 H49            1.7943    -1.7873     1.5709 H       
  50 H50            2.3441    -0.2752    -0.2907 H       
  51 H51            2.8476     0.1425    -2.2779 H       
  52 H52            2.1735     1.5356    -3.1571 H       
  53 H53            2.1293     1.4999    -1.3781 H       
@<TRIPOS>BOND
   1    1   17 2
   2    2   27 1
   3    2   30 1
   4    3    9 2
   5    4    9 2
   6    5   10 1
   7    5   11 1
   8    5   14 1
   9    6   12 1
  10    6   13 1
  11    6   16 1
  12    7   15 1
  13    7   17 am
  14    7   20 1
  15    8   15 2
  16    8   19 1
  17    9   25 1
  18   10   12 1
  19   10   31 1
  20   10   32 1
  21   11   13 1
  22   11   33 1
  23   11   34 1
  24   12   35 1
  25   12   36 1
  26   13   37 1
  27   13   38 1
  28   14   15 1
  29   14   39 1
  30   14   40 1
  31   16   41 1
  32   16   42 1
  33   16   43 1
  34   17   18 1
  35   18   19 ar
  36   18   21 ar
  37   19   22 ar
  38   20   23 ar
  39   20   24 ar
  40   21   25 ar
  41   21   44 1
  42   22   26 ar
  43   22   45 1
  44   23   27 ar
  45   23   46 1
  46   24   28 ar
  47   24   47 1
  48   25   26 ar
  49   26   48 1
  50   27   29 ar
  51   28   29 ar
  52   28   49 1
  53   29   50 1
  54   30   51 1
  55   30   52 1
  56   30   53 1

#	End of record

#	Name: 12005050
#	Creating user name:	landrgr1
#	Creation time:	28. 01. 2015 13:52

#	Modifying user name:	landrgr1
#	Modification time:	28. 01. 2015 13:52

#	Program:	corina 3.48 0006  22.01.2010

@<TRIPOS>MOLECULE
12005050
  38   40    0    0    0
SMALL
NO_CHARGES


@<TRIPOS>ATOM
   1 S1            -0.0217     1.7517     0.0117 S.3     
   2 O2             4.1257    -0.7476    -0.0399 O.2     
   3 N3             4.5358     1.4358    -0.0327 N.am    
   4 N4             6.9119     3.1601    -1.1878 N.ar    
   5 C5            -0.8082    -2.3080     0.4120 C.3     
   6 C6             0.3872    -2.7383    -0.4434 C.3     
   7 C7            -1.2272    -0.8915     0.0087 C.3     
   8 C8             1.6211    -1.9357    -0.0237 C.3     
   9 C9             1.2627    -0.4584    -0.0126 C.2     
  10 C10            0.0021    -0.0041     0.0020 C.2     
  11 C11           -1.9747    -3.2711     0.1826 C.3     
  12 C12            2.2348     0.6163    -0.0160 C.2     
  13 C13            1.6779     1.8528    -0.0040 C.2     
  14 C14            3.6887     0.3875    -0.0303 C.2     
  15 C15            5.9829     1.2081    -0.0470 C.3     
  16 C16            6.7000     2.5336    -0.0468 C.ar    
  17 C17            7.1283     3.0782     1.1488 C.ar    
  18 C18            7.7871     4.2984     1.1379 C.ar    
  19 C19            7.5344     4.3215    -1.2360 C.ar    
  20 C20            7.9912     4.9272    -0.0805 C.ar    
  21 H21           -0.5261    -2.3193     1.4648 H       
  22 H22            0.5769    -3.8014    -0.2955 H       
  23 H23            0.1696    -2.5492    -1.4946 H       
  24 H24           -1.6696    -0.9107    -0.9873 H       
  25 H25           -1.9521    -0.5065     0.7258 H       
  26 H26            1.9356    -2.2437     0.9735 H       
  27 H27            2.4293    -2.1098    -0.7341 H       
  28 H28           -1.6730    -4.2805     0.4625 H       
  29 H29           -2.8247    -2.9639     0.7919 H       
  30 H30           -2.2575    -3.2552    -0.8700 H       
  31 H31            2.2369     2.7769    -0.0047 H       
  32 H32            4.1873     2.3410    -0.0251 H       
  33 H33            6.2700     0.6396     0.8376 H       
  34 H34            6.2539     0.6485    -0.9422 H       
  35 H35            6.9517     2.5603     2.0799 H       
  36 H36            8.1328     4.7482     2.0570 H       
  37 H37            7.6900     4.8046    -2.1893 H       
  38 H38            8.5003     5.8786    -0.1264 H       
@<TRIPOS>BOND
   1    1   10 1
   2    1   13 1
   3    2   14 2
   4    3   14 am
   5    3   15 1
   6    3   32 1
   7    4   16 ar
   8    4   19 ar
   9    5    6 1
  10    5    7 1
  11    5   11 1
  12    5   21 1
  13    6    8 1
  14    6   22 1
  15    6   23 1
  16    7   10 1
  17    7   24 1
  18    7   25 1
  19    8    9 1
  20    8   26 1
  21    8   27 1
  22    9   10 2
  23    9   12 1
  24   11   28 1
  25   11   29 1
  26   11   30 1
  27   12   13 2
  28   12   14 1
  29   13   31 1
  30   15   16 1
  31   15   33 1
  32   15   34 1
  33   16   17 ar
  34   17   18 ar
  35   17   35 1
  36   18   20 ar
  37   18   36 1
  38   19   20 ar
  39   19   37 1
  40   20   38 1

#	End of record

#	Name: 12005030
#	Creating user name:	landrgr1
#	Creation time:	28. 01. 2015 13:52

#	Modifying user name:	landrgr1
#	Modification time:	28. 01. 2015 13:52

#	Program:	corina 3.48 0006  22.01.2010

@<TRIPOS>MOLECULE
12005030
  52   53    0    0    0
SMALL
NO_CHARGES


@<TRIPOS>ATOM
   1 S1            -0.0225     1.8097     0.0120 S.3     
   2 O2            -8.3797    -5.3567     1.7632 O.3     
   3 O3            -6.2608    -6.9175     2.5648 O.3     
   4 O4            -2.3425     0.1585    -0.2157 O.2     
   5 N5            -1.6223    -1.7541     0.6480 N.am    
   6 N6            -2.9305    -2.2396     0.7731 N.2     
   7 N7             2.6005     1.2683    -0.0160 N.ar    
   8 C8            -7.1091    -4.8887     1.6433 C.ar    
   9 C9            -6.0361    -5.6794     2.0488 C.ar    
  10 C10           -9.4326    -4.4941     1.3282 C.3     
  11 C11          -10.7800    -5.1873     1.5395 C.3     
  12 C12           -4.5162    -3.9329     1.3972 C.ar    
  13 C13           -4.7433    -5.2056     1.9273 C.ar    
  14 C14           -6.8837    -3.6271     1.1120 C.ar    
  15 C15           -5.5968    -3.1475     0.9877 C.ar    
  16 C16            0.0021    -0.0041     0.0020 C.3     
  17 C17          -11.9073    -4.2637     1.0737 C.3     
  18 C18           -3.1396    -3.4220     1.2657 C.2     
  19 C19           -5.1143    -7.6734     2.9601 C.3     
  20 C20           -1.4051    -0.5263     0.1365 C.2     
  21 C21            0.6061    -0.4987    -1.3138 C.3     
  22 C22           -5.5623    -9.0283     3.5120 C.3     
  23 C23            1.6887     2.2294    -0.0021 C.ar    
  24 C24            2.0707     3.5675     0.0010 C.ar    
  25 C25            3.4174     3.8825    -0.0102 C.ar    
  26 C26            4.3407     2.8454    -0.0241 C.ar    
  27 C27            3.8915     1.5397    -0.0264 C.ar    
  28 H28           -9.4056    -3.5689     1.9040 H       
  29 H29           -9.3026    -4.2673     0.2700 H       
  30 H30          -10.8069    -6.1124     0.9637 H       
  31 H31          -10.9099    -5.4141     2.5977 H       
  32 H32           -3.9108    -5.8174     2.2417 H       
  33 H33           -7.7181    -3.0192     0.7947 H       
  34 H34           -5.4245    -2.1634     0.5775 H       
  35 H35            0.6044    -0.3639     0.8362 H       
  36 H36          -12.8673    -4.7575     1.2243 H       
  37 H37          -11.8804    -3.3385     1.6495 H       
  38 H38          -11.7774    -4.0369     0.0155 H       
  39 H39           -2.3051    -4.0317     1.5792 H       
  40 H40           -4.4665    -7.8288     2.0974 H       
  41 H41           -4.5686    -7.1295     3.7310 H       
  42 H42            0.0037    -0.1389    -2.1480 H       
  43 H43            1.6239    -0.1210    -1.4111 H       
  44 H44            0.6208    -1.5886    -1.3198 H       
  45 H45           -0.8728    -2.3017     0.9297 H       
  46 H46           -6.2101    -8.8729     4.3747 H       
  47 H47           -6.1080    -9.5722     2.7411 H       
  48 H48           -4.6878    -9.6049     3.8135 H       
  49 H49            1.3257     4.3494     0.0116 H       
  50 H50            3.7436     4.9121    -0.0085 H       
  51 H51            5.3996     3.0578    -0.0334 H       
  52 H52            4.6063     0.7302    -0.0376 H       
@<TRIPOS>BOND
   1    1   16 1
   2    1   23 1
   3    2    8 1
   4    2   10 1
   5    3    9 1
   6    3   19 1
   7    4   20 2
   8    5    6 1
   9    5   20 am
  10    5   45 1
  11    6   18 2
  12    7   23 ar
  13    7   27 ar
  14    8    9 ar
  15    8   14 ar
  16    9   13 ar
  17   10   11 1
  18   10   28 1
  19   10   29 1
  20   11   17 1
  21   11   30 1
  22   11   31 1
  23   12   13 ar
  24   12   15 ar
  25   12   18 1
  26   13   32 1
  27   14   15 ar
  28   14   33 1
  29   15   34 1
  30   16   20 1
  31   16   21 1
  32   16   35 1
  33   17   36 1
  34   17   37 1
  35   17   38 1
  36   18   39 1
  37   19   22 1
  38   19   40 1
  39   19   41 1
  40   21   42 1
  41   21   43 1
  42   21   44 1
  43   22   46 1
  44   22   47 1
  45   22   48 1
  46   23   24 ar
  47   24   25 ar
  48   24   49 1
  49   25   26 ar
  50   25   50 1
  51   26   27 ar
  52   26   51 1
  53   27   52 1

#	End of record

#	Name: 12005022
#	Creating user name:	landrgr1
#	Creation time:	28. 01. 2015 13:52

#	Modifying user name:	landrgr1
#	Modification time:	28. 01. 2015 13:52

#	Program:	corina 3.48 0006  22.01.2010

@<TRIPOS>MOLECULE
12005022
  51   54    0    0    0
SMALL
NO_CHARGES


@<TRIPOS>ATOM
   1 O1            -1.5635     1.6699     0.4044 O.3     
   2 O2             0.2235    -3.8641     6.5862 O.3     
   3 O3            -1.7475    -5.3183     2.0368 O.2     
   4 N4            -1.2804    -1.9886    -0.0324 N.pl3   
   5 N5            -0.3532    -4.0115     5.5459 N.pl3   
   6 N6            -0.6228    -5.7419     3.9126 N.2     
   7 N7            -1.7062    -2.0594     5.3665 N.2     
   8 C8            -1.9392    -0.6802    -0.0157 C.3     
   9 C9            -1.0410    -2.7832     1.0690 C.2     
  10 C10           -0.9049     0.4078     0.2801 C.3     
  11 C11           -0.8094    -2.6234    -1.1341 C.2     
  12 C12           -1.3835    -2.4855     2.4021 C.2     
  13 C13           -1.2554    -3.4545     3.3826 C.2     
  14 C14           -0.4008    -3.9304     0.6215 C.2     
  15 C15           -0.2656    -3.8099    -0.7618 C.2     
  16 C16           -1.1359    -3.1066     4.8273 C.2     
  17 C17           -0.7824     2.7500     0.6692 C.ar    
  18 C18           -0.1826    -5.2920     5.0825 C.2     
  19 C19           -1.3557     4.0060     0.8025 C.ar    
  20 C20           -1.2283    -4.9000     3.0597 C.2     
  21 C21            0.5500    -5.9596     6.0812 C.2     
  22 C22            0.7866    -5.0022     7.0150 C.2     
  23 C23            0.5893     2.5973     0.8122 C.ar    
  24 C24            1.3810     3.6966     1.0813 C.ar    
  25 C25           -0.5593     5.1025     1.0716 C.ar    
  26 C26            0.8077     4.9486     1.2085 C.ar    
  27 C27           -2.8458     4.1746     0.6534 C.3     
  28 C28            1.5469    -5.1865     8.3030 C.3     
  29 C29            2.8709     3.5315     1.2368 C.3     
  30 H30           -2.3973    -0.4917    -0.9866 H       
  31 H31           -2.7081    -0.6704     0.7568 H       
  32 H32           -0.1825     0.4536    -0.5348 H       
  33 H33           -0.3882     0.1744     1.2111 H       
  34 H34           -0.8594    -2.2461    -2.1448 H       
  35 H35           -1.7460    -1.5013     2.6597 H       
  36 H36           -0.0716    -4.7605     1.2289 H       
  37 H37            0.1892    -4.5346    -1.4208 H       
  38 H38            0.8539    -6.9957     6.1009 H       
  39 H39            1.0374     1.6196     0.7136 H       
  40 H40           -1.0051     6.0808     1.1751 H       
  41 H41            1.4284     5.8068     1.4196 H       
  42 H42           -3.3241     4.0539     1.6253 H       
  43 H43           -3.0617     5.1691     0.2632 H       
  44 H44           -3.2293     3.4226    -0.0362 H       
  45 H45            1.5736    -4.2426     8.8475 H       
  46 H46            1.0521    -5.9432     8.9119 H       
  47 H47            2.5648    -5.5070     8.0814 H       
  48 H48            3.3528     3.6499     0.2663 H       
  49 H49            3.2502     4.2865     1.9254 H       
  50 H50            3.0872     2.5386     1.6311 H       
  51 H51           -1.5948    -1.8801     6.3132 H       
@<TRIPOS>BOND
   1    1   10 1
   2    1   17 1
   3    2    5 1
   4    2   22 1
   5    3   20 2
   6    4    8 1
   7    4    9 1
   8    4   11 1
   9    5   16 1
  10    5   18 1
  11    6   18 2
  12    6   20 1
  13    7   16 2
  14    7   51 1
  15    8   10 1
  16    8   30 1
  17    8   31 1
  18    9   12 1
  19    9   14 2
  20   10   32 1
  21   10   33 1
  22   11   15 2
  23   11   34 1
  24   12   13 2
  25   12   35 1
  26   13   16 1
  27   13   20 1
  28   14   15 1
  29   14   36 1
  30   15   37 1
  31   17   19 ar
  32   17   23 ar
  33   18   21 1
  34   19   25 ar
  35   19   27 1
  36   21   22 2
  37   21   38 1
  38   22   28 1
  39   23   24 ar
  40   23   39 1
  41   24   26 ar
  42   24   29 1
  43   25   26 ar
  44   25   40 1
  45   26   41 1
  46   27   42 1
  47   27   43 1
  48   27   44 1
  49   28   45 1
  50   28   46 1
  51   28   47 1
  52   29   48 1
  53   29   49 1
  54   29   50 1

#	End of record

#	Name: 12004937
#	Creating user name:	landrgr1
#	Creation time:	28. 01. 2015 13:52

#	Modifying user name:	landrgr1
#	Modification time:	28. 01. 2015 13:52

#	Program:	corina 3.48 0006  22.01.2010

@<TRIPOS>MOLECULE
12004937
  51   53    0    0    0
SMALL
NO_CHARGES


@<TRIPOS>ATOM
   1 O1            -2.7855    -2.9397    -0.8897 O.2     
   2 O2            -0.0870     1.0903    -0.9755 O.3     
   3 O3            -7.5458     2.3942     0.2381 O.3     
   4 O4             2.3976    -2.7202     0.3893 O.3     
   5 O5            -7.5646     0.2807    -0.4071 O.2     
   6 N6            -5.0130    -2.3764    -0.9510 N.am    
   7 N7            -5.7496    -1.2245    -0.6767 N.2     
   8 C8            -3.5971    -0.7465    -0.3066 C.2     
   9 C9            -4.9805    -0.2494    -0.2993 C.2     
  10 C10           -3.7003    -2.1473    -0.7442 C.2     
  11 C11           -5.4250     1.1404     0.0774 C.3     
  12 C12           -2.4467    -0.0479     0.0256 C.2     
  13 C13           -1.2078    -0.7267     0.1165 C.ar    
  14 C14           -5.5578    -3.5954    -1.3736 C.ar    
  15 C15           -0.0351    -0.1335    -0.3940 C.ar    
  16 C16           -1.1387    -1.9928     0.7212 C.ar    
  17 C17           -6.9235     1.2399    -0.0484 C.2     
  18 C18           -6.9297    -3.7208    -1.5493 C.ar    
  19 C19           -4.7268    -4.6797    -1.6235 C.ar    
  20 C20            1.1686    -0.8084    -0.2983 C.ar    
  21 C21            0.0563    -2.6435     0.8069 C.ar    
  22 C22            1.2156    -2.0611     0.2976 C.ar    
  23 C23           -7.4638    -4.9243    -1.9662 C.ar    
  24 C24           -5.2671    -5.8804    -2.0401 C.ar    
  25 C25           -6.6341    -6.0037    -2.2086 C.ar    
  26 C26           -8.9905     2.4174     0.0947 C.3     
  27 C27            1.1421     1.6265    -1.4693 C.3     
  28 C28           -9.5173     3.8060     0.4625 C.3     
  29 C29            2.3770    -4.0054     1.0138 C.3     
  30 H30           -5.1321     1.3492     1.1063 H       
  31 H31           -4.9556     1.8649    -0.5881 H       
  32 H32           -2.4956     1.0142     0.2150 H       
  33 H33           -2.0325    -2.4509     1.1183 H       
  34 H34           -7.5782    -2.8783    -1.3598 H       
  35 H35           -3.6590    -4.5839    -1.4924 H       
  36 H36            2.0713    -0.3609    -0.6873 H       
  37 H37            0.1050    -3.6165     1.2733 H       
  38 H38           -8.5306    -5.0226    -2.1026 H       
  39 H39           -4.6214    -6.7240    -2.2346 H       
  40 H40           -7.0543    -6.9438    -2.5345 H       
  41 H41           -9.2569     2.1894    -0.9373 H       
  42 H42           -9.4334     1.6736     0.7571 H       
  43 H43            0.9602     2.6074    -1.9085 H       
  44 H44            1.8527     1.7222    -0.6483 H       
  45 H45            1.5511     0.9590    -2.2278 H       
  46 H46           -9.2509     4.0340     1.4945 H       
  47 H47           -9.0745     4.5498    -0.1999 H       
  48 H48          -10.6018     3.8234     0.3548 H       
  49 H49            1.7142    -4.6688     0.4582 H       
  50 H50            3.3844    -4.4217     1.0217 H       
  51 H51            2.0168    -3.9061     2.0377 H       
@<TRIPOS>BOND
   1    1   10 2
   2    2   15 1
   3    2   27 1
   4    3   17 1
   5    3   26 1
   6    4   22 1
   7    4   29 1
   8    5   17 2
   9    6    7 1
  10    6   10 am
  11    6   14 1
  12    7    9 2
  13    8    9 1
  14    8   10 1
  15    8   12 2
  16    9   11 1
  17   11   17 1
  18   11   30 1
  19   11   31 1
  20   12   13 1
  21   12   32 1
  22   13   15 ar
  23   13   16 ar
  24   14   18 ar
  25   14   19 ar
  26   15   20 ar
  27   16   21 ar
  28   16   33 1
  29   18   23 ar
  30   18   34 1
  31   19   24 ar
  32   19   35 1
  33   20   22 ar
  34   20   36 1
  35   21   22 ar
  36   21   37 1
  37   23   25 ar
  38   23   38 1
  39   24   25 ar
  40   24   39 1
  41   25   40 1
  42   26   28 1
  43   26   41 1
  44   26   42 1
  45   27   43 1
  46   27   44 1
  47   27   45 1
  48   28   46 1
  49   28   47 1
  50   28   48 1
  51   29   49 1
  52   29   50 1
  53   29   51 1

#	End of record

#	Name: 12004863
#	Creating user name:	landrgr1
#	Creation time:	28. 01. 2015 13:52

#	Modifying user name:	landrgr1
#	Modification time:	28. 01. 2015 13:52

#	Program:	corina 3.48 0006  22.01.2010

@<TRIPOS>MOLECULE
12004863
  65   68    0    0    0
SMALL
NO_CHARGES


@<TRIPOS>ATOM
   1 F1            -8.3477    -1.4620     0.4926 F       
   2 O2             1.8615     0.3887    -0.2783 O.3     
   3 O3             2.2963    -1.7615     0.0650 O.2     
   4 O4            -0.1537    -4.9788    -0.6169 O.2     
   5 O5            -0.2643   -11.0609     0.1022 O.3     
   6 N6            -4.0121    -2.2012    -0.3774 N.3     
   7 N7            -6.6135    -2.2049    -1.5342 N.3     
   8 N8            -2.1255    -4.2148     0.0628 N.am    
   9 N9            -1.7086    -6.5000    -0.1674 N.am    
  10 C10           -4.3048    -3.0192    -1.5626 C.3     
  11 C11           -4.8429    -0.9891    -0.3593 C.3     
  12 C12           -5.7827    -3.4170    -1.5523 C.3     
  13 C13           -6.3207    -1.3869    -0.3490 C.3     
  14 C14           -2.6590    -1.8796    -0.3149 C.ar    
  15 C15           -7.9726    -2.5280    -1.5970 C.ar    
  16 C16           -1.7125    -2.8842    -0.0953 C.ar    
  17 C17           -2.2509    -0.5603    -0.4768 C.ar    
  18 C18           -8.8284    -2.1456    -0.5690 C.ar    
  19 C19           -8.4721    -3.2258    -2.6878 C.ar    
  20 C20           -0.3697    -2.5652    -0.0338 C.ar    
  21 C21           -0.9136    -0.2376    -0.4162 C.ar    
  22 C22            0.0382    -1.2370    -0.1915 C.ar    
  23 C23          -10.1714    -2.4666    -0.6353 C.ar    
  24 C24           -9.8158    -3.5432    -2.7472 C.ar    
  25 C25          -10.6632    -3.1672    -1.7219 C.ar    
  26 C26            1.4696    -0.8917    -0.1261 C.2     
  27 C27           -1.2883    -5.2224    -0.2536 C.2     
  28 C28           -0.8788    -7.5403    -0.6004 C.ar    
  29 C29            3.2867     0.6553    -0.2021 C.3     
  30 C30           -0.9860    -8.7990    -0.0265 C.ar    
  31 C31            0.0494    -7.3155    -1.6093 C.ar    
  32 C32            3.5367     2.1522    -0.3968 C.3     
  33 C33           -0.1622    -9.8270    -0.4581 C.ar    
  34 C34            0.8682    -8.3424    -2.0370 C.ar    
  35 C35            0.7671    -9.5953    -1.4622 C.ar    
  36 C36            0.6161   -12.0725    -0.3914 C.3     
  37 H37           -4.0892    -2.4445    -2.4634 H       
  38 H38           -3.6865    -3.9167    -1.5468 H       
  39 H39           -4.6168    -0.4066     0.5338 H       
  40 H40           -4.6333    -0.3914    -1.2464 H       
  41 H41           -5.9922    -4.0148    -0.6652 H       
  42 H42           -6.0087    -3.9995    -2.4454 H       
  43 H43           -6.9390    -0.4894    -0.3649 H       
  44 H44           -6.5364    -1.9616     0.5517 H       
  45 H45           -2.9844     0.2130    -0.6508 H       
  46 H46           -7.8113    -3.5203    -3.4896 H       
  47 H47            0.3634    -3.3400     0.1362 H       
  48 H48           -0.5997     0.7880    -0.5427 H       
  49 H49           -3.0138    -4.4100     0.4000 H       
  50 H50          -10.8370    -2.1704     0.1619 H       
  51 H51          -10.2045    -4.0859    -3.5962 H       
  52 H52          -11.7127    -3.4175    -1.7713 H       
  53 H53           -2.5863    -6.6985     0.1948 H       
  54 H54            3.6622     0.3482     0.7740 H       
  55 H55            3.8032     0.0963    -0.9824 H       
  56 H56           -1.7095    -8.9774     0.7551 H       
  57 H57            0.1306    -6.3373    -2.0598 H       
  58 H58            4.6066     2.3523    -0.3396 H       
  59 H59            3.1613     2.4593    -1.3729 H       
  60 H60            3.0203     2.7113     0.3835 H       
  61 H61            1.5889    -8.1659    -2.8217 H       
  62 H62            1.4091   -10.3961    -1.7982 H       
  63 H63            0.4398   -12.2192    -1.4570 H       
  64 H64            1.6494   -11.7636    -0.2333 H       
  65 H65            0.4307   -13.0062     0.1395 H       
@<TRIPOS>BOND
   1    1   18 1
   2    2   26 1
   3    2   29 1
   4    3   26 2
   5    4   27 2
   6    5   33 1
   7    5   36 1
   8    6   10 1
   9    6   11 1
  10    6   14 1
  11    7   12 1
  12    7   13 1
  13    7   15 1
  14    8   16 1
  15    8   27 am
  16    8   49 1
  17    9   27 am
  18    9   28 1
  19    9   53 1
  20   10   12 1
  21   10   37 1
  22   10   38 1
  23   11   13 1
  24   11   39 1
  25   11   40 1
  26   12   41 1
  27   12   42 1
  28   13   43 1
  29   13   44 1
  30   14   16 ar
  31   14   17 ar
  32   15   18 ar
  33   15   19 ar
  34   16   20 ar
  35   17   21 ar
  36   17   45 1
  37   18   23 ar
  38   19   24 ar
  39   19   46 1
  40   20   22 ar
  41   20   47 1
  42   21   22 ar
  43   21   48 1
  44   22   26 1
  45   23   25 ar
  46   23   50 1
  47   24   25 ar
  48   24   51 1
  49   25   52 1
  50   28   30 ar
  51   28   31 ar
  52   29   32 1
  53   29   54 1
  54   29   55 1
  55   30   33 ar
  56   30   56 1
  57   31   34 ar
  58   31   57 1
  59   32   58 1
  60   32   59 1
  61   32   60 1
  62   33   35 ar
  63   34   35 ar
  64   34   61 1
  65   35   62 1
  66   36   63 1
  67   36   64 1
  68   36   65 1

#	End of record

#	Name: 12004857
#	Creating user name:	landrgr1
#	Creation time:	28. 01. 2015 13:52

#	Modifying user name:	landrgr1
#	Modification time:	28. 01. 2015 13:52

#	Program:	corina 3.48 0006  22.01.2010

@<TRIPOS>MOLECULE
12004857
  51   54    0    0    0
SMALL
NO_CHARGES


@<TRIPOS>ATOM
   1 O1            -1.5635     1.6699     0.4044 O.3     
   2 O2             0.2235    -3.8641     6.5862 O.3     
   3 O3            -1.7475    -5.3183     2.0368 O.2     
   4 N4            -1.2804    -1.9886    -0.0324 N.pl3   
   5 N5            -0.3532    -4.0115     5.5459 N.pl3   
   6 N6            -0.6228    -5.7419     3.9126 N.2     
   7 N7            -1.7062    -2.0594     5.3665 N.2     
   8 C8            -1.9392    -0.6802    -0.0157 C.3     
   9 C9            -1.0410    -2.7832     1.0690 C.2     
  10 C10           -0.9049     0.4078     0.2801 C.3     
  11 C11           -0.8094    -2.6234    -1.1341 C.2     
  12 C12           -1.3835    -2.4855     2.4021 C.2     
  13 C13           -1.2554    -3.4545     3.3826 C.2     
  14 C14           -0.4008    -3.9304     0.6215 C.2     
  15 C15           -0.2656    -3.8099    -0.7618 C.2     
  16 C16           -1.1359    -3.1066     4.8273 C.2     
  17 C17           -0.1826    -5.2920     5.0825 C.2     
  18 C18           -0.7824     2.7500     0.6692 C.ar    
  19 C19           -1.2283    -4.9000     3.0597 C.2     
  20 C20            0.5500    -5.9596     6.0812 C.2     
  21 C21            0.7866    -5.0022     7.0150 C.2     
  22 C22            1.3809     3.6967     1.0819 C.ar    
  23 C23           -0.5596     5.1025     1.0721 C.ar    
  24 C24           -1.3558     4.0062     0.8025 C.ar    
  25 C25            0.5891     2.5973     0.8123 C.ar    
  26 C26            0.8076     4.9484     1.2095 C.ar    
  27 C27            1.5469    -5.1865     8.3030 C.3     
  28 C28            2.8707     3.5316     1.2374 C.3     
  29 C29           -1.1817     6.4674     1.2166 C.3     
  30 H30           -2.3973    -0.4917    -0.9866 H       
  31 H31           -2.7081    -0.6704     0.7568 H       
  32 H32           -0.1825     0.4536    -0.5348 H       
  33 H33           -0.3882     0.1744     1.2111 H       
  34 H34           -1.7460    -1.5013     2.6597 H       
  35 H35           -0.8594    -2.2461    -2.1448 H       
  36 H36           -0.0716    -4.7605     1.2289 H       
  37 H37            0.1892    -4.5346    -1.4208 H       
  38 H38            0.8539    -6.9957     6.1009 H       
  39 H39           -2.4236     4.1271     0.6952 H       
  40 H40            1.0373     1.6197     0.7133 H       
  41 H41            1.4282     5.8066     1.4210 H       
  42 H42            1.5736    -4.2426     8.8475 H       
  43 H43            1.0521    -5.9432     8.9119 H       
  44 H44            2.5648    -5.5070     8.0814 H       
  45 H45            3.3527     3.6504     0.2671 H       
  46 H46            3.2499     4.2863     1.9264 H       
  47 H47            3.0870     2.5385     1.6314 H       
  48 H48           -1.4512     6.6354     2.2593 H       
  49 H49           -0.4680     7.2275     0.8988 H       
  50 H50           -2.0759     6.5267     0.5961 H       
  51 H51           -1.5948    -1.8801     6.3132 H       
@<TRIPOS>BOND
   1    1   10 1
   2    1   18 1
   3    2    5 1
   4    2   21 1
   5    3   19 2
   6    4    8 1
   7    4    9 1
   8    4   11 1
   9    5   16 1
  10    5   17 1
  11    6   17 2
  12    6   19 1
  13    7   16 2
  14    7   51 1
  15    8   10 1
  16    8   30 1
  17    8   31 1
  18    9   12 1
  19    9   14 2
  20   10   32 1
  21   10   33 1
  22   11   15 2
  23   11   35 1
  24   12   13 2
  25   12   34 1
  26   13   16 1
  27   13   19 1
  28   14   15 1
  29   14   36 1
  30   15   37 1
  31   17   20 1
  32   18   24 ar
  33   18   25 ar
  34   20   21 2
  35   20   38 1
  36   21   27 1
  37   22   25 ar
  38   22   26 ar
  39   22   28 1
  40   23   24 ar
  41   23   26 ar
  42   23   29 1
  43   24   39 1
  44   25   40 1
  45   26   41 1
  46   27   42 1
  47   27   43 1
  48   27   44 1
  49   28   45 1
  50   28   46 1
  51   28   47 1
  52   29   48 1
  53   29   49 1
  54   29   50 1

#	End of record

#	Name: 12004841
#	Creating user name:	landrgr1
#	Creation time:	28. 01. 2015 13:52

#	Modifying user name:	landrgr1
#	Modification time:	28. 01. 2015 13:52

#	Program:	corina 3.48 0006  22.01.2010

@<TRIPOS>MOLECULE
12004841
  66   68    0    0    0
SMALL
NO_CHARGES


@<TRIPOS>ATOM
   1 S1             1.5884    -5.2968    -1.2150 S.2     
   2 O2             3.9111    -4.8230    -5.7204 O.2     
   3 O3            -0.3194     1.2676    -0.1064 O.3     
   4 O4            -2.3900    -3.0184     0.0821 O.3     
   5 O5            -2.5974    -0.2744     0.0019 O.3     
   6 N6             2.8770    -2.9875    -1.4627 N.am    
   7 N7             2.9108    -6.7537    -6.1607 N.am    
   8 N8             2.9871    -4.4257    -3.2982 N.am    
   9 C9             3.6270    -1.9746    -2.2095 C.3     
  10 C10            5.0458    -2.4868    -2.5134 C.3     
  11 C11            2.9513    -1.7141    -3.5716 C.3     
  12 C12            5.1828    -2.5198    -4.0496 C.3     
  13 C13            4.1345    -1.4935    -4.5466 C.3     
  14 C14            3.5175    -6.8154    -7.4927 C.3     
  15 C15            3.6068    -8.2775    -7.9640 C.3     
  16 C16            2.6273    -6.0770    -8.5136 C.3     
  17 C17            2.7678    -8.3765    -9.2548 C.3     
  18 C18            2.7414    -6.9280    -9.8027 C.3     
  19 C19            2.4797    -2.7306    -0.0762 C.3     
  20 C20            2.5525    -4.1558    -2.0513 C.2     
  21 C21            1.1233    -2.0744    -0.0557 C.ar    
  22 C22            3.1729    -5.7106    -5.3485 C.2     
  23 C23            2.5488    -5.6471    -3.9783 C.3     
  24 C24           -0.0179    -2.8522     0.0042 C.ar    
  25 C25            1.0237    -0.6962    -0.0911 C.ar    
  26 C26           -0.2225    -0.0884    -0.0720 C.ar    
  27 C27           -1.2679    -2.2523     0.0237 C.ar    
  28 C28           -1.3724    -0.8670    -0.0171 C.ar    
  29 C29            0.9039     2.0042    -0.1618 C.3     
  30 C30           -2.2070    -4.4351     0.1210 C.3     
  31 C31           -3.2182    -0.0272    -1.2613 C.3     
  32 H32            3.6791    -1.0498    -1.6348 H       
  33 H33            5.7864    -1.8102    -2.0870 H       
  34 H34            5.1763    -3.4891    -2.1053 H       
  35 H35            2.3619    -2.5788    -3.8766 H       
  36 H36            2.3258    -0.8228    -3.5229 H       
  37 H37            6.1857    -2.2164    -4.3498 H       
  38 H38            4.9537    -3.5146    -4.4318 H       
  39 H39            3.8360    -1.7119    -5.5719 H       
  40 H40            4.5193    -0.4771    -4.4632 H       
  41 H41            4.5115    -6.3688    -7.4710 H       
  42 H42            4.6440    -8.5401    -8.1718 H       
  43 H43            3.1987    -8.9411    -7.2016 H       
  44 H44            1.5943    -6.0461    -8.1670 H       
  45 H45            3.0026    -5.0685    -8.6877 H       
  46 H46            3.2455    -9.0462    -9.9699 H       
  47 H47            1.7575    -8.7170    -9.0279 H       
  48 H48            1.8746    -6.7738   -10.4453 H       
  49 H49            3.6643    -6.6998   -10.3358 H       
  50 H50            2.4357    -3.6730     0.4697 H       
  51 H51            3.2093    -2.0717     0.3946 H       
  52 H52            2.3204    -7.4635    -5.8633 H       
  53 H53            3.5900    -3.8113    -3.7453 H       
  54 H54            2.8572    -6.5167    -3.3979 H       
  55 H55            1.4630    -5.6402    -4.0735 H       
  56 H56            0.0642    -3.9286     0.0354 H       
  57 H57            1.9178    -0.0918    -0.1334 H       
  58 H58            1.5057     1.7758     0.7179 H       
  59 H59            1.4545     1.7270    -1.0607 H       
  60 H60            0.6845     3.0717    -0.1847 H       
  61 H61           -1.6784    -4.7579    -0.7759 H       
  62 H62           -1.6238    -4.7021     1.0024 H       
  63 H63           -3.1792    -4.9259     0.1663 H       
  64 H64           -4.1867     0.4473    -1.1036 H       
  65 H65           -2.5837     0.6306    -1.8554 H       
  66 H66           -3.3575    -0.9710    -1.7885 H       
@<TRIPOS>BOND
   1    1   20 2
   2    2   22 2
   3    3   26 1
   4    3   29 1
   5    4   27 1
   6    4   30 1
   7    5   28 1
   8    5   31 1
   9    6    9 1
  10    6   19 1
  11    6   20 am
  12    7   14 1
  13    7   22 am
  14    7   52 1
  15    8   20 am
  16    8   23 1
  17    8   53 1
  18    9   10 1
  19    9   11 1
  20    9   32 1
  21   10   12 1
  22   10   33 1
  23   10   34 1
  24   11   13 1
  25   11   35 1
  26   11   36 1
  27   12   13 1
  28   12   37 1
  29   12   38 1
  30   13   39 1
  31   13   40 1
  32   14   15 1
  33   14   16 1
  34   14   41 1
  35   15   17 1
  36   15   42 1
  37   15   43 1
  38   16   18 1
  39   16   44 1
  40   16   45 1
  41   17   18 1
  42   17   46 1
  43   17   47 1
  44   18   48 1
  45   18   49 1
  46   19   21 1
  47   19   50 1
  48   19   51 1
  49   21   24 ar
  50   21   25 ar
  51   22   23 1
  52   23   54 1
  53   23   55 1
  54   24   27 ar
  55   24   56 1
  56   25   26 ar
  57   25   57 1
  58   26   28 ar
  59   27   28 ar
  60   29   58 1
  61   29   59 1
  62   29   60 1
  63   30   61 1
  64   30   62 1
  65   30   63 1
  66   31   64 1
  67   31   65 1
  68   31   66 1

#	End of record

#	Name: 12004839
#	Creating user name:	landrgr1
#	Creation time:	28. 01. 2015 13:52

#	Modifying user name:	landrgr1
#	Modification time:	28. 01. 2015 13:52

#	Program:	corina 3.48 0006  22.01.2010

@<TRIPOS>MOLECULE
12004839
  65   68    0    0    0
SMALL
NO_CHARGES


@<TRIPOS>ATOM
   1 F1           -11.9757    -3.4793    -1.7817 F       
   2 O2             1.8615     0.3887    -0.2783 O.3     
   3 O3             2.2963    -1.7615     0.0650 O.2     
   4 O4            -0.1537    -4.9788    -0.6169 O.2     
   5 O5            -0.2643   -11.0609     0.1022 O.3     
   6 N6            -4.0121    -2.2012    -0.3774 N.3     
   7 N7            -6.6135    -2.2049    -1.5342 N.3     
   8 N8            -2.1255    -4.2148     0.0628 N.am    
   9 N9            -1.7086    -6.5000    -0.1674 N.am    
  10 C10           -4.3048    -3.0192    -1.5626 C.3     
  11 C11           -4.8429    -0.9891    -0.3593 C.3     
  12 C12           -5.7827    -3.4170    -1.5523 C.3     
  13 C13           -6.3207    -1.3869    -0.3490 C.3     
  14 C14           -2.6590    -1.8796    -0.3149 C.ar    
  15 C15           -7.9724    -2.5279    -1.5970 C.ar    
  16 C16           -1.7125    -2.8842    -0.0953 C.ar    
  17 C17           -2.2509    -0.5603    -0.4768 C.ar    
  18 C18           -8.9277    -1.5199    -1.5917 C.ar    
  19 C19           -8.3687    -3.8569    -1.6705 C.ar    
  20 C20           -0.3697    -2.5652    -0.0338 C.ar    
  21 C21           -0.9136    -0.2376    -0.4162 C.ar    
  22 C22            0.0382    -1.2370    -0.1915 C.ar    
  23 C23          -10.2696    -1.8413    -1.6537 C.ar    
  24 C24           -9.7116    -4.1737    -1.7323 C.ar    
  25 C25          -10.6626    -3.1673    -1.7211 C.ar    
  26 C26            1.4696    -0.8917    -0.1261 C.2     
  27 C27           -1.2883    -5.2224    -0.2536 C.2     
  28 C28           -0.8788    -7.5403    -0.6004 C.ar    
  29 C29            3.2867     0.6553    -0.2021 C.3     
  30 C30           -0.9860    -8.7990    -0.0265 C.ar    
  31 C31            0.0494    -7.3155    -1.6093 C.ar    
  32 C32            3.5367     2.1522    -0.3968 C.3     
  33 C33           -0.1622    -9.8270    -0.4581 C.ar    
  34 C34            0.8682    -8.3424    -2.0370 C.ar    
  35 C35            0.7671    -9.5953    -1.4622 C.ar    
  36 C36            0.6161   -12.0725    -0.3914 C.3     
  37 H37           -4.0892    -2.4445    -2.4634 H       
  38 H38           -3.6865    -3.9167    -1.5468 H       
  39 H39           -4.6168    -0.4066     0.5338 H       
  40 H40           -4.6333    -0.3914    -1.2464 H       
  41 H41           -5.9922    -4.0148    -0.6652 H       
  42 H42           -6.0087    -3.9995    -2.4454 H       
  43 H43           -6.9390    -0.4894    -0.3649 H       
  44 H44           -6.5364    -1.9616     0.5517 H       
  45 H45           -2.9844     0.2130    -0.6508 H       
  46 H46           -8.6216    -0.4856    -1.5387 H       
  47 H47           -7.6272    -4.6422    -1.6796 H       
  48 H48            0.3634    -3.3400     0.1362 H       
  49 H49           -0.5997     0.7880    -0.5427 H       
  50 H50           -3.0138    -4.4100     0.4000 H       
  51 H51          -11.0129    -1.0578    -1.6492 H       
  52 H52          -10.0202    -5.2071    -1.7895 H       
  53 H53           -2.5863    -6.6985     0.1948 H       
  54 H54            3.6622     0.3482     0.7740 H       
  55 H55            3.8032     0.0963    -0.9824 H       
  56 H56           -1.7095    -8.9774     0.7551 H       
  57 H57            0.1306    -6.3373    -2.0598 H       
  58 H58            4.6066     2.3523    -0.3396 H       
  59 H59            3.1613     2.4593    -1.3729 H       
  60 H60            3.0203     2.7113     0.3835 H       
  61 H61            1.5889    -8.1659    -2.8217 H       
  62 H62            1.4091   -10.3961    -1.7982 H       
  63 H63            0.4398   -12.2192    -1.4570 H       
  64 H64            1.6494   -11.7636    -0.2333 H       
  65 H65            0.4307   -13.0062     0.1395 H       
@<TRIPOS>BOND
   1    1   25 1
   2    2   26 1
   3    2   29 1
   4    3   26 2
   5    4   27 2
   6    5   33 1
   7    5   36 1
   8    6   10 1
   9    6   11 1
  10    6   14 1
  11    7   12 1
  12    7   13 1
  13    7   15 1
  14    8   16 1
  15    8   27 am
  16    8   50 1
  17    9   27 am
  18    9   28 1
  19    9   53 1
  20   10   12 1
  21   10   37 1
  22   10   38 1
  23   11   13 1
  24   11   39 1
  25   11   40 1
  26   12   41 1
  27   12   42 1
  28   13   43 1
  29   13   44 1
  30   14   16 ar
  31   14   17 ar
  32   15   18 ar
  33   15   19 ar
  34   16   20 ar
  35   17   21 ar
  36   17   45 1
  37   18   23 ar
  38   18   46 1
  39   19   24 ar
  40   19   47 1
  41   20   22 ar
  42   20   48 1
  43   21   22 ar
  44   21   49 1
  45   22   26 1
  46   23   25 ar
  47   23   51 1
  48   24   25 ar
  49   24   52 1
  50   28   30 ar
  51   28   31 ar
  52   29   32 1
  53   29   54 1
  54   29   55 1
  55   30   33 ar
  56   30   56 1
  57   31   34 ar
  58   31   57 1
  59   32   58 1
  60   32   59 1
  61   32   60 1
  62   33   35 ar
  63   34   35 ar
  64   34   61 1
  65   35   62 1
  66   36   63 1
  67   36   64 1
  68   36   65 1

#	End of record

#	Name: 12004824
#	Creating user name:	landrgr1
#	Creation time:	28. 01. 2015 13:52

#	Modifying user name:	landrgr1
#	Modification time:	28. 01. 2015 13:52

#	Program:	corina 3.48 0006  22.01.2010

@<TRIPOS>MOLECULE
12004824
  38   41    0    0    0
SMALL
NO_CHARGES


@<TRIPOS>ATOM
   1 S1             0.1235     1.5887    -1.0365 S.3     
   2 F2             2.0603    -3.4840     5.6551 F       
   3 F3            -4.8452    -5.9787     0.0148 F       
   4 O4             0.6237    -3.7377     0.9047 O.2     
   5 O5            -2.0795    -0.7354    -0.9165 O.2     
   6 N6             1.4768    -1.7446     0.4904 N.am    
   7 N7            -0.7551    -2.2706    -0.0029 N.am    
   8 C8             1.3123    -0.4413     0.0022 C.2     
   9 C9             2.7767    -2.1631     1.0208 C.3     
  10 C10            0.0705    -0.0818    -0.4910 C.2     
  11 C11            0.4534    -2.6131     0.4745 C.2     
  12 C12           -0.9799    -1.0342    -0.4859 C.2     
  13 C13            2.8343    -1.8704     2.4980 C.ar    
  14 C14            2.2268     0.6024    -0.0743 C.2     
  15 C15           -1.7940    -3.2122     0.0015 C.ar    
  16 C16            1.7629     1.7363    -0.5946 C.2     
  17 C17            2.4160    -2.8228     3.4075 C.ar    
  18 C18            3.3110    -0.6512     2.9429 C.ar    
  19 C19           -2.6398    -3.3088     1.0981 C.ar    
  20 C20           -1.9818    -4.0451    -1.0932 C.ar    
  21 C21            2.4694    -2.5537     4.7649 C.ar    
  22 C22            3.3652    -0.3817     4.2975 C.ar    
  23 C23           -3.6626    -4.2369     1.1006 C.ar    
  24 C24           -3.0057    -4.9720    -1.0870 C.ar    
  25 C25            2.9420    -1.3306     5.2090 C.ar    
  26 C26           -3.8445    -5.0711     0.0104 C.ar    
  27 H27            2.9088    -3.2326     0.8569 H       
  28 H28            3.5702    -1.6166     0.5110 H       
  29 H29            3.2466     0.5002     0.2662 H       
  30 H30            2.3497     2.6342    -0.7204 H       
  31 H31            2.0472    -3.7765     3.0600 H       
  32 H32            3.6416     0.0911     2.2314 H       
  33 H33           -2.4978    -2.6589     1.9489 H       
  34 H34           -1.3278    -3.9681    -1.9492 H       
  35 H35            3.7384     0.5708     4.6438 H       
  36 H36           -4.3207    -4.3124     1.9536 H       
  37 H37           -3.1520    -5.6201    -1.9384 H       
  38 H38            2.9838    -1.1196     6.2673 H       
@<TRIPOS>BOND
   1    1   10 1
   2    1   16 1
   3    2   21 1
   4    3   26 1
   5    4   11 2
   6    5   12 2
   7    6    8 1
   8    6    9 1
   9    6   11 am
  10    7   11 am
  11    7   12 am
  12    7   15 1
  13    8   10 2
  14    8   14 1
  15    9   13 1
  16    9   27 1
  17    9   28 1
  18   10   12 1
  19   13   17 ar
  20   13   18 ar
  21   14   16 2
  22   14   29 1
  23   15   19 ar
  24   15   20 ar
  25   16   30 1
  26   17   21 ar
  27   17   31 1
  28   18   22 ar
  29   18   32 1
  30   19   23 ar
  31   19   33 1
  32   20   24 ar
  33   20   34 1
  34   21   25 ar
  35   22   25 ar
  36   22   35 1
  37   23   26 ar
  38   23   36 1
  39   24   26 ar
  40   24   37 1
  41   25   38 1

#	End of record

#	Name: 12004806
#	Creating user name:	landrgr1
#	Creation time:	28. 01. 2015 13:52

#	Modifying user name:	landrgr1
#	Modification time:	28. 01. 2015 13:52

#	Program:	corina 3.48 0006  22.01.2010

@<TRIPOS>MOLECULE
12004806
  30   33    0    0    0
SMALL
NO_CHARGES


@<TRIPOS>ATOM
   1 S1             0.0077     1.7421    -0.2926 S.3     
   2 S2             4.8060     1.9190     0.8089 S.3     
   3 O3             3.5424     0.6777    -0.9020 O.2     
   4 C4             1.4009    -0.2704    -1.0522 C.ar    
   5 C5             1.6872    -1.6406    -1.5197 C.ar    
   6 C6             0.0607     0.0635    -0.8438 C.ar    
   7 C7             0.6211    -2.5405    -1.7329 C.ar    
   8 C8             2.3354     0.8089    -0.7699 C.2     
   9 C9             1.7536     2.0144    -0.3337 C.2     
  10 C10           -0.9625    -0.8652    -1.0700 C.ar    
  11 C11           -0.7050    -2.1242    -1.4986 C.ar    
  12 C12            3.0030    -2.0532    -1.7524 C.ar    
  13 C13            0.9017    -3.8430    -2.1778 C.ar    
  14 C14            2.4144     3.1767    -0.0043 C.2     
  15 C15            3.2424    -3.3256    -2.1850 C.ar    
  16 C16            2.1945    -4.2159    -2.3959 C.ar    
  17 C17            3.8223     3.1858     0.0883 C.2     
  18 C18            4.6451     4.1858    -0.3695 C.2     
  19 C19            5.9766     3.9344    -0.1475 C.2     
  20 C20            6.2421     2.7746     0.4681 C.2     
  21 H21           -1.9867    -0.5692    -0.8974 H       
  22 H22           -1.5207    -2.8130    -1.6622 H       
  23 H23            3.8238    -1.3700    -1.5915 H       
  24 H24            0.0980    -4.5447    -2.3457 H       
  25 H25            1.8550     4.0813     0.1830 H       
  26 H26            4.2581    -3.6454    -2.3651 H       
  27 H27            2.4086    -5.2178    -2.7377 H       
  28 H28            4.2816     5.0792    -0.8554 H       
  29 H29            6.7536     4.6217    -0.4478 H       
  30 H30            7.2342     2.4271     0.7160 H       
@<TRIPOS>BOND
   1    1    6 1
   2    1    9 1
   3    2   17 1
   4    2   20 1
   5    3    8 2
   6    4    5 ar
   7    4    6 ar
   8    4    8 1
   9    5    7 ar
  10    5   12 ar
  11    6   10 ar
  12    7   11 ar
  13    7   13 ar
  14    8    9 1
  15    9   14 2
  16   10   11 ar
  17   10   21 1
  18   11   22 1
  19   12   15 ar
  20   12   23 1
  21   13   16 ar
  22   13   24 1
  23   14   17 1
  24   14   25 1
  25   15   16 ar
  26   15   26 1
  27   16   27 1
  28   17   18 2
  29   18   19 1
  30   18   28 1
  31   19   20 2
  32   19   29 1
  33   20   30 1

#	End of record

#	Name: 12004790
#	Creating user name:	landrgr1
#	Creation time:	28. 01. 2015 13:52

#	Modifying user name:	landrgr1
#	Modification time:	28. 01. 2015 13:52

#	Program:	corina 3.48 0006  22.01.2010

@<TRIPOS>MOLECULE
12004790
  52   54    0    0    0
SMALL
NO_CHARGES


@<TRIPOS>ATOM
   1 Cl1            8.1904    -6.6741    -2.0475 Cl      
   2 S2            -1.6431    -4.7859    -0.7200 S.2     
   3 O3             0.1034     0.8906    -1.7872 O.3     
   4 O4            -5.7897    -1.3683     1.4145 O.3     
   5 O5             1.1189    -0.9516    -1.0778 O.2     
   6 O6            -4.7262    -3.2520     1.9092 O.2     
   7 N7             3.2005    -6.3704    -0.9582 N.3     
   8 N8             0.9436    -4.9551    -0.1409 N.am    
   9 N9            -0.0252    -2.8446     0.0975 N.am    
  10 C10            1.8752    -6.8201    -1.4047 C.3     
  11 C11            3.2669    -4.9051    -0.8777 C.3     
  12 C12            0.8231    -6.4027    -0.3717 C.3     
  13 C13            2.2718    -4.4092     0.1768 C.3     
  14 C14            4.2053    -6.8721    -1.7886 C.ar    
  15 C15           -0.1346    -4.1501    -0.2189 C.2     
  16 C16            5.5353    -6.5622    -1.5368 C.ar    
  17 C17            3.8766    -7.6869    -2.8650 C.ar    
  18 C18           -1.1584    -2.0363     0.1193 C.ar    
  19 C19            6.5273    -7.0609    -2.3605 C.ar    
  20 C20            4.8720    -8.1820    -3.6841 C.ar    
  21 C21            6.1954    -7.8679    -3.4346 C.ar    
  22 C22           -1.1292    -0.7677    -0.4787 C.ar    
  23 C23           -2.3221    -2.4855     0.7276 C.ar    
  24 C24           -3.4536    -1.6738     0.7471 C.ar    
  25 C25           -2.2694     0.0397    -0.4546 C.ar    
  26 C26           -3.4190    -0.4081     0.1548 C.ar    
  27 C27            0.1037    -0.2865    -1.1315 C.2     
  28 C28           -4.6948    -2.1523     1.3950 C.2     
  29 C29            1.3515     1.3011    -2.4054 C.3     
  30 C30           -6.9715    -1.9025     2.0674 C.3     
  31 H31            1.6414    -6.3641    -2.3667 H       
  32 H32            1.8746    -7.9053    -1.5064 H       
  33 H33            4.2755    -4.6016    -0.5973 H       
  34 H34            3.0137    -4.4758    -1.8471 H       
  35 H35            0.9945    -6.9379     0.5623 H       
  36 H36           -0.1730    -6.6314    -0.7506 H       
  37 H37            2.2335    -3.3200     0.1606 H       
  38 H38            2.5824    -4.7528     1.1635 H       
  39 H39            5.7944    -5.9322    -0.6987 H       
  40 H40            2.8434    -7.9332    -3.0606 H       
  41 H41            0.8432    -2.4682     0.3101 H       
  42 H42            4.6166    -8.8157    -4.5206 H       
  43 H43            6.9718    -8.2564    -4.0769 H       
  44 H44           -2.3502    -3.4634     1.1852 H       
  45 H45           -2.2482     1.0167    -0.9146 H       
  46 H46           -4.2986     0.2184     0.1716 H       
  47 H47            1.6548     0.5562    -3.1410 H       
  48 H48            1.2135     2.2634    -2.8984 H       
  49 H49            2.1230     1.3919    -1.6408 H       
  50 H50           -6.7447    -2.1149     3.1122 H       
  51 H51           -7.7787    -1.1721     2.0121 H       
  52 H52           -7.2783    -2.8216     1.5682 H       
@<TRIPOS>BOND
   1    1   19 1
   2    2   15 2
   3    3   27 1
   4    3   29 1
   5    4   28 1
   6    4   30 1
   7    5   27 2
   8    6   28 2
   9    7   10 1
  10    7   11 1
  11    7   14 1
  12    8   12 1
  13    8   13 1
  14    8   15 am
  15    9   15 am
  16    9   18 1
  17    9   41 1
  18   10   12 1
  19   10   31 1
  20   10   32 1
  21   11   13 1
  22   11   33 1
  23   11   34 1
  24   12   35 1
  25   12   36 1
  26   13   37 1
  27   13   38 1
  28   14   16 ar
  29   14   17 ar
  30   16   19 ar
  31   16   39 1
  32   17   20 ar
  33   17   40 1
  34   18   22 ar
  35   18   23 ar
  36   19   21 ar
  37   20   21 ar
  38   20   42 1
  39   21   43 1
  40   22   25 ar
  41   22   27 1
  42   23   24 ar
  43   23   44 1
  44   24   26 ar
  45   24   28 1
  46   25   26 ar
  47   25   45 1
  48   26   46 1
  49   29   47 1
  50   29   48 1
  51   29   49 1
  52   30   50 1
  53   30   51 1
  54   30   52 1

#	End of record

#	Name: 12004746
#	Creating user name:	landrgr1
#	Creation time:	28. 01. 2015 13:52

#	Modifying user name:	landrgr1
#	Modification time:	28. 01. 2015 13:52

#	Program:	corina 3.48 0006  22.01.2010

@<TRIPOS>MOLECULE
12004746
  50   54    0    0    0
SMALL
NO_CHARGES


@<TRIPOS>ATOM
   1 Cl1           -3.9135     2.1870     0.0330 Cl      
   2 Cl2           -4.9052    -2.2638    -2.6471 Cl      
   3 O3            -1.1957     3.2853     0.0260 O.2     
   4 N4            -0.0169     1.3945     0.0097 N.am    
   5 N5             0.0021    -0.0041     0.0020 N.2     
   6 N6            -3.5295    -0.7658     0.0150 N.pl3   
   7 C7             1.2454     2.1380     0.0017 C.3     
   8 C8             3.7351     1.9306    -0.0232 C.3     
   9 C9             2.6251     3.8016    -1.2519 C.3     
  10 C10            2.6489     3.7882     1.2464 C.3     
  11 C11            2.4168     1.1540    -0.0148 C.3     
  12 C12            1.3068     3.0250    -1.2435 C.3     
  13 C13            1.3307     3.0116     1.2548 C.3     
  14 C14            3.7966     2.8176    -1.2684 C.3     
  15 C15            3.8204     2.8041     1.2300 C.3     
  16 C16            2.7104     4.6751     0.0013 C.3     
  17 C17           -1.1865     2.0638     0.0189 C.2     
  18 C18           -2.3933     1.3489     0.0207 C.2     
  19 C19           -1.1056    -0.6912     0.0089 C.2     
  20 C20           -2.3542    -0.0336     0.0129 C.2     
  21 C21           -3.4804    -2.2300     0.0067 C.3     
  22 C22           -4.8836    -2.7797     0.0109 C.ar    
  23 C23           -5.6099    -2.8319    -1.1657 C.ar    
  24 C24           -5.4431    -3.2369     1.1889 C.ar    
  25 C25           -6.8978    -3.3366    -1.1611 C.ar    
  26 C26           -6.7303    -3.7417     1.1928 C.ar    
  27 C27           -7.4585    -3.7885     0.0189 C.ar    
  28 H28            4.5697     1.2295    -0.0350 H       
  29 H29            2.6689     4.4335    -2.1390 H       
  30 H30            2.7097     4.4105     2.1392 H       
  31 H31            2.3730     0.5221     0.8722 H       
  32 H32            2.3560     0.5317    -0.9076 H       
  33 H33            1.2460     2.4027    -2.1363 H       
  34 H34            0.4723     3.7261    -1.2318 H       
  35 H35            0.4961     3.7126     1.2666 H       
  36 H36            1.2869     2.3797     2.1419 H       
  37 H37            4.7357     3.3708    -1.2744 H       
  38 H38            3.7358     2.1952    -2.1612 H       
  39 H39            3.7766     2.1722     2.1170 H       
  40 H40            4.7596     3.3574     1.2240 H       
  41 H41            3.6496     5.2284    -0.0047 H       
  42 H42            1.8758     5.3762     0.0130 H       
  43 H43           -1.0676    -1.7705     0.0024 H       
  44 H44           -4.3854    -0.3093     0.0218 H       
  45 H45           -2.9593    -2.5710    -0.8878 H       
  46 H46           -2.9501    -2.5807     0.8921 H       
  47 H47           -4.8748    -3.2003     2.1065 H       
  48 H48           -7.4653    -3.3773    -2.0791 H       
  49 H49           -7.1670    -4.0996     2.1135 H       
  50 H50           -8.4641    -4.1825     0.0227 H       
@<TRIPOS>BOND
   1    1   18 1
   2    2   23 1
   3    3   17 2
   4    4    5 1
   5    4    7 1
   6    4   17 am
   7    5   19 2
   8    6   20 1
   9    6   21 1
  10    6   44 1
  11    7   11 1
  12    7   12 1
  13    7   13 1
  14    8   11 1
  15    8   14 1
  16    8   15 1
  17    8   28 1
  18    9   12 1
  19    9   14 1
  20    9   16 1
  21    9   29 1
  22   10   13 1
  23   10   15 1
  24   10   16 1
  25   10   30 1
  26   11   31 1
  27   11   32 1
  28   12   33 1
  29   12   34 1
  30   13   35 1
  31   13   36 1
  32   14   37 1
  33   14   38 1
  34   15   39 1
  35   15   40 1
  36   16   41 1
  37   16   42 1
  38   17   18 1
  39   18   20 2
  40   19   20 1
  41   19   43 1
  42   21   22 1
  43   21   45 1
  44   21   46 1
  45   22   23 ar
  46   22   24 ar
  47   23   25 ar
  48   24   26 ar
  49   24   47 1
  50   25   27 ar
  51   25   48 1
  52   26   27 ar
  53   26   49 1
  54   27   50 1

#	End of record

#	Name: 12004709
#	Creating user name:	landrgr1
#	Creation time:	28. 01. 2015 13:52

#	Modifying user name:	landrgr1
#	Modification time:	28. 01. 2015 13:52

#	Program:	corina 3.48 0006  22.01.2010

@<TRIPOS>MOLECULE
12004709
  33   35    0    0    0
SMALL
NO_CHARGES


@<TRIPOS>ATOM
   1 Cl1            0.0000     0.0000     0.0000 Cl      
   2 H2             0.0000     1.3700     0.0000 H       
   3 S3             7.0377    11.9030     6.5447 S.3     
   4 O4            15.2299    15.4961     6.4885 O.3     
   5 O5            14.2138    17.5209     6.5114 O.3     
   6 O6            11.4468    11.9202     6.5027 O.2     
   7 N7             9.5611    13.0935     6.5279 N.am    
   8 N8             9.2693    10.7428     6.5172 N.2     
   9 C9            13.8779    15.3056     6.5001 C.ar    
  10 C10           11.7226    14.2382     6.5143 C.ar    
  11 C11           13.2529    16.5533     6.5139 C.ar    
  12 C12           13.1173    14.1527     6.5005 C.ar    
  13 C13           11.1030    15.4906     6.5270 C.ar    
  14 C14           11.8669    16.6370     6.5272 C.ar    
  15 C15           10.9062    13.0091     6.5146 C.2     
  16 C16            7.0615    10.1412     6.5350 C.ar    
  17 C17            8.3944     9.7180     6.5200 C.ar    
  18 C18           15.4211    16.8642     6.0826 C.3     
  19 C19            8.7952    11.9405     6.5282 C.2     
  20 C20            6.0264     9.2100     6.5395 C.ar    
  21 C21            8.6575     8.3319     6.5105 C.ar    
  22 C22            6.3075     7.8616     6.5296 C.ar    
  23 C23            7.6249     7.4283     6.5155 C.ar    
  24 H24           13.5998    13.1866     6.4897 H       
  25 H25           10.0253    15.5598     6.5376 H       
  26 H26           11.3861    17.6040     6.5381 H       
  27 H27           16.2891    17.2941     6.5824 H       
  28 H28           15.5294    16.9308     5.0000 H       
  29 H29            9.1298    13.9623     6.5374 H       
  30 H30            5.0000     9.5459     6.5511 H       
  31 H31            9.6785     7.9797     6.4989 H       
  32 H32            5.5022     7.1420     6.5339 H       
  33 H33            7.8400     6.3700     6.5074 H       
@<TRIPOS>BOND
   1    1    2 1
   2    3   16 1
   3    3   19 1
   4    4    9 1
   5    4   18 1
   6    5   11 1
   7    5   18 1
   8    6   15 2
   9    7   15 am
  10    7   19 1
  11    7   29 1
  12    8   17 1
  13    8   19 2
  14    9   11 ar
  15    9   12 ar
  16   10   12 ar
  17   10   13 ar
  18   10   15 1
  19   11   14 ar
  20   12   24 1
  21   13   14 ar
  22   13   25 1
  23   14   26 1
  24   16   17 ar
  25   16   20 ar
  26   17   21 ar
  27   18   27 1
  28   18   28 1
  29   20   22 ar
  30   20   30 1
  31   21   23 ar
  32   21   31 1
  33   22   23 ar
  34   22   32 1
  35   23   33 1

#	End of record

#	Name: 12004678
#	Creating user name:	landrgr1
#	Creation time:	28. 01. 2015 13:52

#	Modifying user name:	landrgr1
#	Modification time:	28. 01. 2015 13:52

#	Program:	corina 3.48 0006  22.01.2010

@<TRIPOS>MOLECULE
12004678
  38   39    0    0    0
SMALL
NO_CHARGES


@<TRIPOS>ATOM
   1 I1             0.0000     0.0000     0.0000 I       
   2 N2            10.7249    10.1644     7.0729 N.ar    
   3 N3             6.7391     7.5591     8.4529 N.ar    
   4 C4             8.4275     8.6245     7.0733 C.ar    
   5 C5             9.6947     8.0167     7.1558 C.ar    
   6 C6            10.8510     8.8359     7.1533 C.ar    
   7 C7             7.1693     7.7951     7.0725 C.3     
   8 C8             8.3707     9.9862     6.9832 C.ar    
   9 C9            11.9276    11.0008     7.0707 C.3     
  10 C10            9.5468    10.7333     6.9906 C.ar    
  11 C11            9.8322     6.6228     7.2503 C.ar    
  12 C12           12.1171     8.2310     7.2355 C.ar    
  13 C13           11.0759     6.0724     7.3181 C.ar    
  14 C14           12.2141     6.8758     7.3158 C.ar    
  15 C15           12.4721    11.1075     5.6449 C.3     
  16 C16            6.0160     8.4760     9.0657 C.ar    
  17 C17            7.0806     6.4331     9.0483 C.ar    
  18 C18            5.5917     8.2880    10.3675 C.ar    
  19 C19            6.6922     6.1753    10.3493 C.ar    
  20 C20            5.9357     7.1184    11.0280 C.ar    
  21 H21            7.3640     6.8402     6.5843 H       
  22 H22            6.3847     8.3257     6.5331 H       
  23 H23            7.4145    10.4841     6.9184 H       
  24 H24           11.6789    11.9958     7.4401 H       
  25 H25           12.6833    10.5523     7.7156 H       
  26 H26            9.4861    11.8097     6.9273 H       
  27 H27            8.9569     5.9902     7.2619 H       
  28 H28           13.0095     8.8392     7.2346 H       
  29 H29           11.1808     5.0000     7.3911 H       
  30 H30           13.1892     6.4157     7.3784 H       
  31 H31           12.7207    10.1126     5.2755 H       
  32 H32           11.7164    11.5560     5.0000 H       
  33 H33           13.3669    11.7298     5.6432 H       
  34 H34            5.7526     9.3844     8.5444 H       
  35 H35            7.6702     5.7037     8.5128 H       
  36 H36            5.0000     9.0427    10.8642 H       
  37 H37            6.9743     5.2509    10.8312 H       
  38 H38            5.6185     6.9445    12.0456 H       
@<TRIPOS>BOND
   1    2    6 ar
   2    2    9 1
   3    2   10 ar
   4    3    7 1
   5    3   16 ar
   6    3   17 ar
   7    4    5 ar
   8    4    7 1
   9    4    8 ar
  10    5    6 ar
  11    5   11 ar
  12    6   12 ar
  13    7   21 1
  14    7   22 1
  15    8   10 ar
  16    8   23 1
  17    9   15 1
  18    9   24 1
  19    9   25 1
  20   10   26 1
  21   11   13 ar
  22   11   27 1
  23   12   14 ar
  24   12   28 1
  25   13   14 ar
  26   13   29 1
  27   14   30 1
  28   15   31 1
  29   15   32 1
  30   15   33 1
  31   16   18 ar
  32   16   34 1
  33   17   19 ar
  34   17   35 1
  35   18   20 ar
  36   18   36 1
  37   19   20 ar
  38   19   37 1
  39   20   38 1

#	End of record

#	Name: 12004667
#	Creating user name:	landrgr1
#	Creation time:	28. 01. 2015 13:52

#	Modifying user name:	landrgr1
#	Modification time:	28. 01. 2015 13:52

#	Program:	corina 3.48 0006  22.01.2010

@<TRIPOS>MOLECULE
12004667
  51   54    0    0    0
SMALL
NO_CHARGES


@<TRIPOS>ATOM
   1 O1             1.4075    -7.4936    -0.0402 O.2     
   2 O2             0.1188     1.3503     0.3219 O.3     
   3 O3            -5.2981   -10.5801     0.7255 O.2     
   4 O4            -3.6724   -11.9042     0.4929 O.2     
   5 N5            -0.5748    -6.3737     0.2261 N.am    
   6 N6            -0.9562    -5.0332     0.3038 N.2     
   7 N7             2.9219    -3.4475    -0.0236 N.pl3   
   8 N8            -4.1046   -10.7682     0.5719 N.pl3   
   9 N9             4.6209     1.1662     0.2873 N.ar    
  10 C10            1.2678    -5.1376     0.0321 C.2     
  11 C11            0.0925    -4.2585     0.1950 C.2     
  12 C12            0.7588    -6.4659     0.0625 C.2     
  13 C13            0.0994    -2.7777     0.2285 C.ar    
  14 C14           -1.4498    -7.4630     0.3118 C.ar    
  15 C15            2.5858    -4.7511    -0.1188 C.2     
  16 C16            4.3313    -3.0498    -0.0615 C.3     
  17 C17           -0.1147    -2.0509    -0.9428 C.ar    
  18 C18            0.3143    -2.1067     1.4325 C.ar    
  19 C19           -2.8111    -7.2502     0.4870 C.ar    
  20 C20           -0.9592    -8.7589     0.2162 C.ar    
  21 C21            4.4339    -1.5514     0.0625 C.ar    
  22 C22           -0.1080    -0.6727    -0.9079 C.ar    
  23 C23            0.3201    -0.7283     1.4601 C.ar    
  24 C24            0.1120    -0.0080     0.2913 C.ar    
  25 C25           -3.6716    -8.3271     0.5712 C.ar    
  26 C26           -1.8251    -9.8314     0.3012 C.ar    
  27 C27           -3.1793    -9.6162     0.4813 C.ar    
  28 C28            4.5430    -0.9479     1.3060 C.ar    
  29 C29            4.4220    -0.7435    -1.0643 C.ar    
  30 C30            4.6355     0.4290     1.3806 C.ar    
  31 C31            4.5185     0.6267    -0.9116 C.ar    
  32 C32            0.3511     1.9695     1.5887 C.3     
  33 H33            3.3471    -5.4922    -0.3130 H       
  34 H34            4.8639    -3.5201     0.7651 H       
  35 H35            4.7732    -3.3673    -1.0060 H       
  36 H36            2.2302    -2.7739     0.0699 H       
  37 H37           -0.2851    -2.5673    -1.8759 H       
  38 H38            0.4760    -2.6663     2.3420 H       
  39 H39           -3.1962    -6.2436     0.5576 H       
  40 H40            0.0981    -8.9277     0.0752 H       
  41 H41           -0.2737    -0.1094    -1.8143 H       
  42 H42            0.4865    -0.2081     2.3918 H       
  43 H43           -4.7302    -8.1622     0.7077 H       
  44 H44           -1.4444   -10.8393     0.2265 H       
  45 H45            4.5558    -1.5463     2.2050 H       
  46 H46            4.3387    -1.1795    -2.0489 H       
  47 H47            4.7211     0.9067     2.3454 H       
  48 H48            4.5099     1.2629    -1.7843 H       
  49 H49           -0.4257     1.6646     2.2900 H       
  50 H50            1.3252     1.6630     1.9697 H       
  51 H51            0.3308     3.0531     1.4726 H       
@<TRIPOS>BOND
   1    1   12 2
   2    2   24 1
   3    2   32 1
   4    3    8 2
   5    4    8 2
   6    5    6 1
   7    5   12 am
   8    5   14 1
   9    6   11 2
  10    7   15 1
  11    7   16 1
  12    7   36 1
  13    8   27 1
  14    9   30 ar
  15    9   31 ar
  16   10   11 1
  17   10   12 1
  18   10   15 2
  19   11   13 1
  20   13   17 ar
  21   13   18 ar
  22   14   19 ar
  23   14   20 ar
  24   15   33 1
  25   16   21 1
  26   16   34 1
  27   16   35 1
  28   17   22 ar
  29   17   37 1
  30   18   23 ar
  31   18   38 1
  32   19   25 ar
  33   19   39 1
  34   20   26 ar
  35   20   40 1
  36   21   28 ar
  37   21   29 ar
  38   22   24 ar
  39   22   41 1
  40   23   24 ar
  41   23   42 1
  42   25   27 ar
  43   25   43 1
  44   26   27 ar
  45   26   44 1
  46   28   30 ar
  47   28   45 1
  48   29   31 ar
  49   29   46 1
  50   30   47 1
  51   31   48 1
  52   32   49 1
  53   32   50 1
  54   32   51 1

#	End of record

#	Name: 12004617
#	Creating user name:	landrgr1
#	Creation time:	28. 01. 2015 13:52

#	Modifying user name:	landrgr1
#	Modification time:	28. 01. 2015 13:52

#	Program:	corina 3.48 0006  22.01.2010

@<TRIPOS>MOLECULE
12004617
  43   45    0    0    0
SMALL
NO_CHARGES


@<TRIPOS>ATOM
   1 S1            -0.0172     1.4168     0.0098 S.o2    
   2 O2             0.0021    -0.0041     0.0020 O.2     
   3 O3             1.2052     2.1412     0.0021 O.2     
   4 O4            -4.8536     3.5346    -0.5928 O.2     
   5 O5            -6.0126     8.9139    -4.8405 O.2     
   6 N6            -2.8172     3.7576    -1.4486 N.am    
   7 N7            -3.8882     6.0129    -3.0391 N.pl3   
   8 N8            -4.7337     6.9815    -3.5963 N.pl3   
   9 C9            -2.3112     2.6382    -0.6505 C.3     
  10 C10           -1.0856     2.0160    -1.3486 C.3     
  11 C11           -1.8816     3.1445     0.7440 C.3     
  12 C12           -1.0615     2.0025     1.3976 C.3     
  13 C13           -4.1089     4.1285    -1.3466 C.2     
  14 C14           -4.6214     5.2625    -2.1551 C.2     
  15 C15           -5.8989     5.7344    -2.1446 C.2     
  16 C16           -5.9746     6.8136    -3.0477 C.2     
  17 C17           -7.1271     7.5847    -3.3346 C.2     
  18 C18           -7.0641     8.6504    -4.2713 C.2     
  19 C19           -8.2218     9.3979    -4.5362 C.2     
  20 C20           -8.3480     7.3014    -2.7005 C.2     
  21 C21           -9.3881     9.0973    -3.8971 C.2     
  22 C22           -9.4515     8.0493    -2.9833 C.2     
  23 C23           -8.1758    10.5330    -5.5264 C.3     
  24 C24          -10.6258     9.9062    -4.1886 C.3     
  25 H25           -3.0914     1.8850    -0.5397 H       
  26 H26           -0.5624     2.7695    -1.9374 H       
  27 H27           -1.3929     1.1848    -1.9832 H       
  28 H28           -1.2625     4.0358     0.6431 H       
  29 H29           -2.7615     3.3670     1.3477 H       
  30 H30           -1.7183     1.2071     1.7499 H       
  31 H31           -0.4450     2.3854     2.2109 H       
  32 H32           -2.2225     4.2319    -2.0506 H       
  33 H33           -6.7124     5.3487    -1.5480 H       
  34 H34           -2.9483     5.8914    -3.2457 H       
  35 H35           -4.4836     7.6505    -4.2526 H       
  36 H36           -8.4123     6.4910    -1.9895 H       
  37 H37          -10.3872     7.8258    -2.4924 H       
  38 H38           -7.1676    10.6215    -5.9311 H       
  39 H39           -8.8769    10.3362    -6.3374 H       
  40 H40           -8.4496    11.4623    -5.0268 H       
  41 H41          -11.1711     9.4508    -5.0153 H       
  42 H42          -11.2613     9.9296    -3.3033 H       
  43 H43          -10.3403    10.9230    -4.4579 H       
@<TRIPOS>BOND
   1    1    2 2
   2    1    3 2
   3    1   10 1
   4    1   12 1
   5    4   13 2
   6    5   18 2
   7    6    9 1
   8    6   13 am
   9    6   32 1
  10    7    8 1
  11    7   14 1
  12    7   34 1
  13    8   16 1
  14    8   35 1
  15    9   10 1
  16    9   11 1
  17    9   25 1
  18   10   26 1
  19   10   27 1
  20   11   12 1
  21   11   28 1
  22   11   29 1
  23   12   30 1
  24   12   31 1
  25   13   14 1
  26   14   15 2
  27   15   16 1
  28   15   33 1
  29   16   17 2
  30   17   18 1
  31   17   20 1
  32   18   19 1
  33   19   21 2
  34   19   23 1
  35   20   22 2
  36   20   36 1
  37   21   22 1
  38   21   24 1
  39   22   37 1
  40   23   38 1
  41   23   39 1
  42   23   40 1
  43   24   41 1
  44   24   42 1
  45   24   43 1

#	End of record

#	Name: 12004608
#	Creating user name:	landrgr1
#	Creation time:	28. 01. 2015 13:52

#	Modifying user name:	landrgr1
#	Modification time:	28. 01. 2015 13:52

#	Program:	corina 3.48 0006  22.01.2010

@<TRIPOS>MOLECULE
12004608
  48   50    0    0    0
SMALL
NO_CHARGES


@<TRIPOS>ATOM
   1 Cl1            6.8545    10.4254    -0.0110 Cl      
   2 S2            -0.0227     1.8216     0.0121 S.3     
   3 O3             8.8424     6.4616    -0.0476 O.3     
   4 O4            10.1437     4.0381    -0.0829 O.3     
   5 O5             1.9275    -1.4451    -0.0245 O.2     
   6 O6            -2.9523    -0.5998    -2.2181 O.3     
   7 O7            -2.6043     0.3930    -0.2747 O.2     
   8 N8             2.2430     0.7489    -0.0153 N.2     
   9 N9             2.4590     3.1294    -0.0046 N.pl3   
  10 N10            3.8594     3.0918    -0.0182 N.2     
  11 C11            0.0021    -0.0041     0.0020 C.3     
  12 C12           -0.6798    -0.5496    -1.2543 C.3     
  13 C13            1.4849    -0.3128    -0.0138 C.2     
  14 C14            1.7452     1.9663    -0.0040 C.2     
  15 C15            8.1262     5.3054    -0.0465 C.ar    
  16 C16            8.1017     7.6835    -0.0350 C.3     
  17 C17            6.0120     4.1586    -0.0330 C.ar    
  18 C18            9.0563     8.8496    -0.0382 C.ar    
  19 C19            6.7446     5.3484    -0.0336 C.ar    
  20 C20            8.7850     4.0780    -0.0646 C.ar    
  21 C21           -2.1491    -0.2175    -1.2128 C.2     
  22 C22            6.6796     2.9312    -0.0455 C.ar    
  23 C23            8.0580     2.8965    -0.0636 C.ar    
  24 C24            4.5384     4.1981    -0.0187 C.2     
  25 C25            8.5675    10.1441    -0.0276 C.ar    
  26 C26           10.4200     8.6264    -0.0461 C.ar    
  27 C27            9.4443    11.2140    -0.0306 C.ar    
  28 C28           11.2960     9.6961    -0.0486 C.ar    
  29 C29           10.8083    10.9894    -0.0442 C.ar    
  30 C30           10.7545     2.7463    -0.1009 C.3     
  31 H31           -0.4696    -0.4024     0.9003 H       
  32 H32           -0.2297    -0.0968    -2.1377 H       
  33 H33           -0.5529    -1.6314    -1.2959 H       
  34 H34            7.4658     7.7321    -0.9189 H       
  35 H35            7.4821     7.7237     0.8609 H       
  36 H36            6.2327     6.2993    -0.0237 H       
  37 H37            6.1161     2.0098    -0.0451 H       
  38 H38            8.5728     1.9472    -0.0780 H       
  39 H39            1.9968     3.9822     0.0044 H       
  40 H40            4.0238     5.1476    -0.0087 H       
  41 H41           10.8017     7.6160    -0.0499 H       
  42 H42            9.0634    12.2246    -0.0226 H       
  43 H43           12.3617     9.5211    -0.0540 H       
  44 H44           11.4930    11.8246    -0.0465 H       
  45 H45           -3.8873    -0.3638    -2.1469 H       
  46 H46           10.4572     2.1914     0.7889 H       
  47 H47           10.4336     2.2050    -0.9909 H       
  48 H48           11.8388     2.8573    -0.1144 H       
@<TRIPOS>BOND
   1    1   25 1
   2    2   11 1
   3    2   14 1
   4    3   15 1
   5    3   16 1
   6    4   20 1
   7    4   30 1
   8    5   13 2
   9    6   21 1
  10    6   45 1
  11    7   21 2
  12    8   13 1
  13    8   14 2
  14    9   10 1
  15    9   14 1
  16    9   39 1
  17   10   24 2
  18   11   12 1
  19   11   13 1
  20   11   31 1
  21   12   21 1
  22   12   32 1
  23   12   33 1
  24   15   19 ar
  25   15   20 ar
  26   16   18 1
  27   16   34 1
  28   16   35 1
  29   17   19 ar
  30   17   22 ar
  31   17   24 1
  32   18   25 ar
  33   18   26 ar
  34   19   36 1
  35   20   23 ar
  36   22   23 ar
  37   22   37 1
  38   23   38 1
  39   24   40 1
  40   25   27 ar
  41   26   28 ar
  42   26   41 1
  43   27   29 ar
  44   27   42 1
  45   28   29 ar
  46   28   43 1
  47   29   44 1
  48   30   46 1
  49   30   47 1
  50   30   48 1

#	End of record

#	Name: 12004557
#	Creating user name:	landrgr1
#	Creation time:	28. 01. 2015 13:52

#	Modifying user name:	landrgr1
#	Modification time:	28. 01. 2015 13:52

#	Program:	corina 3.48 0006  22.01.2010

@<TRIPOS>MOLECULE
12004557
  50   52    0    0    0
SMALL
NO_CHARGES


@<TRIPOS>ATOM
   1 Cl1           -5.3986    -8.6329     8.9155 Cl      
   2 O2             0.0970     0.9886    -0.6537 O.3     
   3 O3             2.2735     0.3767    -0.7944 O.3     
   4 O4             2.4807    -4.7236     0.2006 O.2     
   5 O5             0.4599    -5.2221     0.5447 O.2     
   6 N6            -2.4620    -5.0958     3.7692 N.pl3   
   7 N7            -1.4662    -3.8768     1.9039 N.pl3   
   8 N8            -3.2304    -5.4972     1.7766 N.2     
   9 N9             1.3108    -4.3932     0.2758 N.pl3   
  10 C10           -0.4052    -2.6109     0.1259 C.ar    
  11 C11           -1.4554    -3.6394     0.4583 C.3     
  12 C12           -2.3534    -4.7871     2.4485 C.2     
  13 C13            0.9231    -2.9844     0.0402 C.ar    
  14 C14           -3.4635    -6.0447     3.8795 C.2     
  15 C15           -0.7723    -1.2963    -0.0933 C.ar    
  16 C16            0.1915    -0.3490    -0.3984 C.ar    
  17 C17            1.5296    -0.7252    -0.4849 C.ar    
  18 C18            1.8901    -2.0446    -0.2645 C.ar    
  19 C19           -3.9413    -6.6841     5.1234 C.ar    
  20 C20           -3.9221    -6.2734     2.6212 C.2     
  21 C21           -1.6665    -4.5354     4.8644 C.3     
  22 C22            1.4315     1.5056    -0.4946 C.3     
  23 C23           -3.6979    -6.0819     6.3591 C.ar    
  24 C24           -4.6427    -7.8898     5.0669 C.ar    
  25 C25           -4.1467    -6.6833     7.5165 C.ar    
  26 C26           -5.0865    -8.4815     6.2313 C.ar    
  27 C27           -4.8374    -7.8819     7.4544 C.ar    
  28 H28           -1.2293    -4.5706    -0.0612 H       
  29 H29           -2.4331    -3.2754     0.1425 H       
  30 H30           -0.8510    -3.3954     2.4790 H       
  31 H31           -1.8108    -1.0075    -0.0259 H       
  32 H32            2.9271    -2.3391    -0.3304 H       
  33 H33           -4.7081    -6.9622     2.3490 H       
  34 H34           -2.2111    -3.7106     5.3240 H       
  35 H35           -1.4801    -5.3081     5.6103 H       
  36 H36           -0.7165    -4.1707     4.4738 H       
  37 H37            1.6142     2.3173    -1.1987 H       
  38 H38            1.5923     1.8420     0.5296 H       
  39 H39           -3.1591    -5.1473     6.4088 H       
  40 H40           -4.8379    -8.3582     4.1136 H       
  41 H41           -3.9588    -6.2186     8.4731 H       
  42 H42           -5.6295    -9.4140     6.1889 H       
  43 O43           10.2507    11.2233    13.9362 O.3     
  44 O44            9.0035     7.7680    13.9295 O.3     
  45 O45           11.3271     9.2861    13.9155 O.2     
  46 O46            7.9271     9.7052    13.9502 O.2     
  47 C47           10.2690     9.8780    13.9288 C.2     
  48 C48            8.9853     9.1134    13.9369 C.2     
  49 H49           11.1063    11.6740    13.9304 H       
  50 H50            8.1480     7.3173    13.9353 H       
@<TRIPOS>BOND
   1    1   27 1
   2    2   16 1
   3    2   22 1
   4    3   17 1
   5    3   22 1
   6    4    9 2
   7    5    9 2
   8    6   12 1
   9    6   14 1
  10    6   21 1
  11    7   11 1
  12    7   12 1
  13    7   30 1
  14    8   12 2
  15    8   20 1
  16    9   13 1
  17   10   11 1
  18   10   13 ar
  19   10   15 ar
  20   11   28 1
  21   11   29 1
  22   13   18 ar
  23   14   19 1
  24   14   20 2
  25   15   16 ar
  26   15   31 1
  27   16   17 ar
  28   17   18 ar
  29   18   32 1
  30   19   23 ar
  31   19   24 ar
  32   20   33 1
  33   21   34 1
  34   21   35 1
  35   21   36 1
  36   22   37 1
  37   22   38 1
  38   23   25 ar
  39   23   39 1
  40   24   26 ar
  41   24   40 1
  42   25   27 ar
  43   25   41 1
  44   26   27 ar
  45   26   42 1
  46   43   47 1
  47   43   49 1
  48   44   48 1
  49   44   50 1
  50   45   47 2
  51   46   48 2
  52   47   48 1

#	End of record

#	Name: 12004548
#	Creating user name:	landrgr1
#	Creation time:	28. 01. 2015 13:52

#	Modifying user name:	landrgr1
#	Modification time:	28. 01. 2015 13:52

#	Program:	corina 3.48 0006  22.01.2010

@<TRIPOS>MOLECULE
12004548
  42   43    0    0    0
SMALL
NO_CHARGES


@<TRIPOS>ATOM
   1 O1             3.1315    -2.1368    -0.0607 O.2     
   2 O2             0.8275     1.5867    -0.6252 O.3     
   3 O3             4.9959     0.4481    -1.0375 O.2     
   4 O4             4.7265     0.6620     1.0439 O.2     
   5 N5             0.9423    -2.5074    -0.0593 N.am    
   6 N6             0.6688     0.3925    -0.5225 N.2     
   7 N7             4.2618     0.6223    -0.0813 N.pl3   
   8 C8             1.1245    -3.9647    -0.0202 C.3     
   9 C9             0.2731    -4.5980    -1.1252 C.3     
  10 C10           -1.1793    -4.1418    -0.9691 C.3     
  11 C11           -0.4220    -1.9644    -0.0074 C.3     
  12 C12           -1.2561    -2.6201    -1.1124 C.3     
  13 C13            2.5986    -4.3036    -0.2507 C.3     
  14 C14            2.0066    -1.6840    -0.1358 C.2     
  15 C15            2.7791    -5.8230    -0.2481 C.3     
  16 C16            1.8045    -0.2251    -0.3118 C.2     
  17 C17            2.8052     0.7858    -0.2866 C.2     
  18 C18            2.1159     1.9316    -0.4941 C.2     
  19 C19            2.6861     3.3247    -0.5645 C.3     
  20 C20            2.3769     3.9338    -1.9336 C.3     
  21 C21            2.0588     4.1886     0.5314 C.3     
  22 H22            0.8070    -4.3468     0.9500 H       
  23 H23            0.6500    -4.2855    -2.0990 H       
  24 H24            0.3239    -5.6839    -1.0463 H       
  25 H25           -1.7919    -4.6104    -1.7394 H       
  26 H26           -1.5477    -4.4329     0.0146 H       
  27 H27           -0.8656    -2.1833     0.9639 H       
  28 H28           -0.3923    -0.8860    -0.1631 H       
  29 H29           -0.8648    -2.3262    -2.0864 H       
  30 H30           -2.2938    -2.2982    -1.0245 H       
  31 H31            2.9178    -3.9015    -1.2122 H       
  32 H32            3.2010    -3.8649     0.5447 H       
  33 H33            2.3767    -6.2351     0.6772 H       
  34 H34            2.2493    -6.2532    -1.0981 H       
  35 H35            3.8398    -6.0630    -0.3218 H       
  36 H36            3.7658     3.2831    -0.4209 H       
  37 H37            2.7894     4.9414    -1.9845 H       
  38 H38            2.8239     3.3183    -2.7144 H       
  39 H39            1.2973     3.9754    -2.0773 H       
  40 H40            2.2791     3.7547     1.5068 H       
  41 H41            2.4713     5.1963     0.4805 H       
  42 H42            0.9791     4.2303     0.3877 H       
@<TRIPOS>BOND
   1    1   14 2
   2    2    6 1
   3    2   18 1
   4    3    7 2
   5    4    7 2
   6    5    8 1
   7    5   11 1
   8    5   14 am
   9    6   16 2
  10    7   17 1
  11    8    9 1
  12    8   13 1
  13    8   22 1
  14    9   10 1
  15    9   23 1
  16    9   24 1
  17   10   12 1
  18   10   25 1
  19   10   26 1
  20   11   12 1
  21   11   27 1
  22   11   28 1
  23   12   29 1
  24   12   30 1
  25   13   15 1
  26   13   31 1
  27   13   32 1
  28   14   16 1
  29   15   33 1
  30   15   34 1
  31   15   35 1
  32   16   17 1
  33   17   18 2
  34   18   19 1
  35   19   20 1
  36   19   21 1
  37   19   36 1
  38   20   37 1
  39   20   38 1
  40   20   39 1
  41   21   40 1
  42   21   41 1
  43   21   42 1

#	End of record

#	Name: 12004544
#	Creating user name:	landrgr1
#	Creation time:	28. 01. 2015 13:52

#	Modifying user name:	landrgr1
#	Modification time:	28. 01. 2015 13:52

#	Program:	corina 3.48 0006  22.01.2010

@<TRIPOS>MOLECULE
12004544
  40   42    0    0    0
SMALL
NO_CHARGES


@<TRIPOS>ATOM
   1 Cl1          -15.6022     1.9167     0.1259 Cl      
   2 S2            -0.4651     2.8212    -0.8452 S.3     
   3 O3            -9.2535     0.4682    -1.3391 O.2     
   4 O4            -5.1229     1.1118    -0.3877 O.2     
   5 N5            -9.6035    -1.1967     0.0887 N.am    
   6 N6            -3.5674    -0.4737    -0.4182 N.am    
   7 N7            -2.5444     0.4743    -0.5510 N.2     
   8 C8            -8.2680    -1.6049     0.0087 C.ar    
   9 C9            -5.9311    -1.0729    -0.2016 C.ar    
  10 C10           -7.2612    -0.6607    -0.1221 C.ar    
  11 C11           -7.9499    -2.9565     0.0658 C.ar    
  12 C12          -11.3957     0.3940    -0.4102 C.ar    
  13 C13           -5.6226    -2.4339    -0.1488 C.ar    
  14 C14          -10.0163    -0.1053    -0.5859 C.2     
  15 C15           -6.6315    -3.3652    -0.0129 C.ar    
  16 C16           -4.8519    -0.0728    -0.3416 C.2     
  17 C17          -11.8262     1.5243    -1.1077 C.ar    
  18 C18          -12.2758    -0.2660     0.4498 C.ar    
  19 C19          -13.1147     1.9856    -0.9395 C.ar    
  20 C20          -13.5620     0.2048     0.6097 C.ar    
  21 C21          -13.9814     1.3300    -0.0807 C.ar    
  22 C22           -0.2339     1.0795    -0.7638 C.2     
  23 C23           -1.3046     0.0873    -0.6249 C.2     
  24 C24            1.0971     0.7967    -0.8503 C.2     
  25 C25            1.9071     1.9035    -0.9756 C.2     
  26 C26            1.2679     3.0779    -0.9933 C.2     
  27 H27           -7.5060     0.3904    -0.1626 H       
  28 H28          -10.2326    -1.6990     0.6298 H       
  29 H29           -8.7353    -3.6901     0.1722 H       
  30 H30           -4.5939    -2.7572    -0.2101 H       
  31 H31           -6.3905    -4.4169     0.0328 H       
  32 H32          -11.1512     2.0365    -1.7774 H       
  33 H33          -11.9500    -1.1436     0.9883 H       
  34 H34          -13.4487     2.8600    -1.4783 H       
  35 H35          -14.2437    -0.3050     1.2743 H       
  36 H36           -3.3512    -1.4186    -0.3814 H       
  37 H37           -1.0639    -0.9647    -0.5840 H       
  38 H38            1.4840    -0.2112    -0.8223 H       
  39 H39            2.9816     1.8283    -1.0538 H       
  40 H40            1.7458     4.0420    -1.0855 H       
@<TRIPOS>BOND
   1    1   21 1
   2    2   22 1
   3    2   26 1
   4    3   14 2
   5    4   16 2
   6    5    8 1
   7    5   14 am
   8    5   28 1
   9    6    7 1
  10    6   16 am
  11    6   36 1
  12    7   23 2
  13    8   10 ar
  14    8   11 ar
  15    9   10 ar
  16    9   13 ar
  17    9   16 1
  18   10   27 1
  19   11   15 ar
  20   11   29 1
  21   12   14 1
  22   12   17 ar
  23   12   18 ar
  24   13   15 ar
  25   13   30 1
  26   15   31 1
  27   17   19 ar
  28   17   32 1
  29   18   20 ar
  30   18   33 1
  31   19   21 ar
  32   19   34 1
  33   20   21 ar
  34   20   35 1
  35   22   23 1
  36   22   24 2
  37   23   37 1
  38   24   25 1
  39   24   38 1
  40   25   26 2
  41   25   39 1
  42   26   40 1

#	End of record

#	Name: 12004533
#	Creating user name:	landrgr1
#	Creation time:	28. 01. 2015 13:52

#	Modifying user name:	landrgr1
#	Modification time:	28. 01. 2015 13:52

#	Program:	corina 3.48 0006  22.01.2010

@<TRIPOS>MOLECULE
12004533
  46   46    0    0    0
SMALL
NO_CHARGES


@<TRIPOS>ATOM
   1 I1             0.0000     0.0000     0.0000 I       
   2 S2            10.1917    14.5490     7.0935 S.3     
   3 O3            15.9131    15.9522     7.0463 O.3     
   4 N4             7.3862     8.6773     7.0887 N.4     
   5 C5             6.0086     8.1707     7.0992 C.3     
   6 C6             8.0813     8.2055     5.8851 C.3     
   7 C7             7.3663    10.1462     7.0968 C.3     
   8 C8             6.0237     6.6424     7.1726 C.3     
   9 C9             8.1762     6.6785     5.9118 C.3     
  10 C10            6.7648     6.0855     5.9537 C.3     
  11 C11            8.0933     8.1936     8.2820 C.3     
  12 C12            8.8017    10.6758     7.0860 C.3     
  13 C13            8.7809    12.2056     7.0944 C.3     
  14 C14           10.2163    12.7352     7.0835 C.3     
  15 C15           11.9029    14.9687     7.0794 C.ar    
  16 C16           12.2916    16.3024     7.0829 C.ar    
  17 C17           12.8645    13.9661     7.0706 C.ar    
  18 C18           13.6330    16.6302     7.0718 C.ar    
  19 C19           14.2053    14.2961     7.0595 C.ar    
  20 C20           14.5922    15.6282     7.0572 C.ar    
  21 H21            5.4815     8.5705     7.9655 H       
  22 H22            5.4994     8.4853     6.1882 H       
  23 H23            7.5279     8.5193     5.0000 H       
  24 H24            9.0844     8.6310     5.8551 H       
  25 H25            6.8391    10.5073     6.2138 H       
  26 H26            6.8561    10.4977     7.9936 H       
  27 H27            6.5325     6.3268     8.0834 H       
  28 H28            5.0000     6.2681     7.1785 H       
  29 H29            8.6910     6.3301     5.0165 H       
  30 H30            8.7296     6.3636     6.7965 H       
  31 H31            6.8277     5.0000     6.0299 H       
  32 H32            6.2280     6.3578     5.0450 H       
  33 H33            8.1064     7.1037     8.2797 H       
  34 H34            9.1165     8.5692     8.2753 H       
  35 H35            7.5817     8.5489     9.1765 H       
  36 H36            9.3289    10.3147     7.9690 H       
  37 H37            9.3119    10.3242     6.1892 H       
  38 H38            8.2537    12.5667     6.2113 H       
  39 H39            8.2707    12.5571     7.9912 H       
  40 H40           10.7265    12.3837     6.1867 H       
  41 H41           10.7435    12.3741     7.9666 H       
  42 H42           11.5449    17.0826     7.0939 H       
  43 H43           12.5635    12.9289     7.0727 H       
  44 H44           13.9354    17.6670     7.0741 H       
  45 H45           14.9530    13.5169     7.0530 H       
  46 H46           16.3035    16.0411     7.9264 H       
@<TRIPOS>BOND
   1    2   14 1
   2    2   15 1
   3    3   20 1
   4    3   46 1
   5    4    5 1
   6    4    6 1
   7    4    7 1
   8    4   11 1
   9    5    8 1
  10    5   21 1
  11    5   22 1
  12    6    9 1
  13    6   23 1
  14    6   24 1
  15    7   12 1
  16    7   25 1
  17    7   26 1
  18    8   10 1
  19    8   27 1
  20    8   28 1
  21    9   10 1
  22    9   29 1
  23    9   30 1
  24   10   31 1
  25   10   32 1
  26   11   33 1
  27   11   34 1
  28   11   35 1
  29   12   13 1
  30   12   36 1
  31   12   37 1
  32   13   14 1
  33   13   38 1
  34   13   39 1
  35   14   40 1
  36   14   41 1
  37   15   16 ar
  38   15   17 ar
  39   16   18 ar
  40   16   42 1
  41   17   19 ar
  42   17   43 1
  43   18   20 ar
  44   18   44 1
  45   19   20 ar
  46   19   45 1

#	End of record

#	Name: 12004520
#	Creating user name:	landrgr1
#	Creation time:	28. 01. 2015 13:52

#	Modifying user name:	landrgr1
#	Modification time:	28. 01. 2015 13:52

#	Program:	corina 3.48 0006  22.01.2010

@<TRIPOS>MOLECULE
12004520
  32   34    0    0    0
SMALL
NO_CHARGES


@<TRIPOS>ATOM
   1 S1             0.0177     1.9429    -0.2865 S.3     
   2 F2            -3.1920    -1.8842     1.2715 F       
   3 F3             7.7308    -0.0314    -0.7602 F       
   4 O4             1.8324    -1.3462    -0.2433 O.2     
   5 N5             2.2893     0.8263    -0.3970 N.am    
   6 N6             2.4539     3.2081    -0.5411 N.2     
   7 C7             3.6712     0.6086    -0.4892 C.ar    
   8 C8             0.0335     0.1716    -0.1903 C.2     
   9 C9             1.4523    -0.1907    -0.2777 C.2     
  10 C10            1.7771     2.0989    -0.4282 C.2     
  11 C11           -1.0290    -0.6617    -0.0636 C.2     
  12 C12           -2.3953    -0.1252    -0.1293 C.ar    
  13 C13            4.3450     0.9075    -1.6657 C.ar    
  14 C14            4.3686     0.0992     0.5978 C.ar    
  15 C15            5.7063     0.6923    -1.7546 C.ar    
  16 C16            5.7299    -0.1146     0.5051 C.ar    
  17 C17           -3.4385    -0.7677     0.5520 C.ar    
  18 C18           -2.6617     1.0332    -0.8673 C.ar    
  19 C19            6.3992     0.1788    -0.6712 C.ar    
  20 C20           -4.7195    -0.2552     0.4844 C.ar    
  21 C21           -3.9462     1.5305    -0.9236 C.ar    
  22 C22           -4.9728     0.8876    -0.2530 C.ar    
  23 H23           -0.8708    -1.7196     0.0855 H       
  24 H24            3.8048     1.3077    -2.5110 H       
  25 H25            3.8470    -0.1295     1.5155 H       
  26 H26            6.2307     0.9244    -2.6697 H       
  27 H27            6.2728    -0.5109     1.3505 H       
  28 H28           -1.8629     1.5368    -1.3914 H       
  29 H29           -5.5252    -0.7480     1.0082 H       
  30 H30           -4.1526     2.4246    -1.4931 H       
  31 H31           -5.9765     1.2832    -0.3022 H       
  32 H32            1.9902     4.0600    -0.5531 H       
@<TRIPOS>BOND
   1    1    8 1
   2    1   10 1
   3    2   17 1
   4    3   19 1
   5    4    9 2
   6    5    7 1
   7    5    9 am
   8    5   10 1
   9    6   10 2
  10    6   32 1
  11    7   13 ar
  12    7   14 ar
  13    8    9 1
  14    8   11 2
  15   11   12 1
  16   11   23 1
  17   12   17 ar
  18   12   18 ar
  19   13   15 ar
  20   13   24 1
  21   14   16 ar
  22   14   25 1
  23   15   19 ar
  24   15   26 1
  25   16   19 ar
  26   16   27 1
  27   17   20 ar
  28   18   21 ar
  29   18   28 1
  30   20   22 ar
  31   20   29 1
  32   21   22 ar
  33   21   30 1
  34   22   31 1

#	End of record

#	Name: 12004508
#	Creating user name:	landrgr1
#	Creation time:	28. 01. 2015 13:52

#	Modifying user name:	landrgr1
#	Modification time:	28. 01. 2015 13:52

#	Program:	corina 3.48 0006  22.01.2010

@<TRIPOS>MOLECULE
12004508
  53   56    0    0    0
SMALL
NO_CHARGES


@<TRIPOS>ATOM
   1 S1            -0.0218     1.7539     0.0117 S.3     
   2 O2             0.7525    -3.8843    -0.0259 O.2     
   3 O3            -2.2093    -0.5884     0.0196 O.2     
   4 O4            -1.6060    -3.0761     2.3437 O.2     
   5 O5             2.9009    -6.0904     3.4433 O.2     
   6 O6             3.8527    -5.3185     5.1605 O.2     
   7 N7             1.5475    -1.8252    -0.0221 N.am    
   8 N8            -0.7553    -2.2709    -0.0029 N.am    
   9 N9            -3.1784    -4.4915     1.6755 N.am    
  10 N10            3.4605    -5.1730     4.0166 N.pl3   
  11 C11            1.3139    -0.4434    -0.0129 C.2     
  12 C12            2.9228    -2.3295    -0.0379 C.3     
  13 C13            0.5212    -2.6905    -0.0178 C.2     
  14 C14            0.0021    -0.0041     0.0020 C.2     
  15 C15           -1.0484    -0.9569     0.0069 C.2     
  16 C16           -1.8408    -3.2548     0.0022 C.3     
  17 C17            3.4082    -2.5096     1.3774 C.ar    
  18 C18            2.2182     0.6119    -0.0158 C.2     
  19 C19           -2.1990    -3.6002     1.4246 C.2     
  20 C20            1.6808     1.8296    -0.0042 C.2     
  21 C21            3.2187    -3.7160     2.0247 C.ar    
  22 C22            4.0480    -1.4699     2.0263 C.ar    
  23 C23           -3.5266    -4.8272     3.0583 C.3     
  24 C24            3.6639    -3.8812     3.3232 C.ar    
  25 C25           -4.6432    -5.8393     3.0635 C.ar    
  26 C26            4.4931    -1.6351     3.3244 C.ar    
  27 C27            4.2984    -2.8399     3.9739 C.ar    
  28 C28           -4.3514    -7.1905     3.0530 C.ar    
  29 C29           -5.9591    -5.4166     3.0845 C.ar    
  30 C30           -6.6916    -7.6961     3.0735 C.ar    
  31 C31           -5.3756    -8.1188     3.0578 C.ar    
  32 C32           -6.9834    -6.3449     3.0893 C.ar    
  33 C33           -7.8082    -8.7082     3.0782 C.3     
  34 H34            2.9526    -3.2876    -0.5569 H       
  35 H35            3.5654    -1.6164    -0.5544 H       
  36 H36           -2.7126    -2.8365    -0.5008 H       
  37 H37           -1.5173    -4.1553    -0.5200 H       
  38 H38            3.2866     0.4544    -0.0265 H       
  39 H39            2.2502     2.7473    -0.0047 H       
  40 H40            2.7225    -4.5295     1.5164 H       
  41 H41            4.2003    -0.5288     1.5188 H       
  42 H42           -2.6548    -5.2455     3.5612 H       
  43 H43           -3.8501    -3.9267     3.5804 H       
  44 H44           -3.6526    -4.9106     0.9404 H       
  45 H45            4.9933    -0.8230     3.8312 H       
  46 H46            4.6459    -2.9689     4.9883 H       
  47 H47           -3.3232    -7.5208     3.0408 H       
  48 H48           -6.1871    -4.3610     3.0975 H       
  49 H49           -5.1476    -9.1745     3.0489 H       
  50 H50           -8.0115    -6.0147     3.1061 H       
  51 H51           -8.0672    -8.9586     4.1069 H       
  52 H52           -8.6801    -8.2895     2.5756 H       
  53 H53           -7.4848    -9.6083     2.5554 H       
@<TRIPOS>BOND
   1    1   14 1
   2    1   20 1
   3    2   13 2
   4    3   15 2
   5    4   19 2
   6    5   10 2
   7    6   10 2
   8    7   11 1
   9    7   12 1
  10    7   13 am
  11    8   13 am
  12    8   15 am
  13    8   16 1
  14    9   19 am
  15    9   23 1
  16    9   44 1
  17   10   24 1
  18   11   14 2
  19   11   18 1
  20   12   17 1
  21   12   34 1
  22   12   35 1
  23   14   15 1
  24   16   19 1
  25   16   36 1
  26   16   37 1
  27   17   21 ar
  28   17   22 ar
  29   18   20 2
  30   18   38 1
  31   20   39 1
  32   21   24 ar
  33   21   40 1
  34   22   26 ar
  35   22   41 1
  36   23   25 1
  37   23   42 1
  38   23   43 1
  39   24   27 ar
  40   25   28 ar
  41   25   29 ar
  42   26   27 ar
  43   26   45 1
  44   27   46 1
  45   28   31 ar
  46   28   47 1
  47   29   32 ar
  48   29   48 1
  49   30   31 ar
  50   30   32 ar
  51   30   33 1
  52   31   49 1
  53   32   50 1
  54   33   51 1
  55   33   52 1
  56   33   53 1

#	End of record

#	Name: 12004455
#	Creating user name:	landrgr1
#	Creation time:	28. 01. 2015 13:52

#	Modifying user name:	landrgr1
#	Modification time:	28. 01. 2015 13:52

#	Program:	corina 3.48 0006  22.01.2010

@<TRIPOS>MOLECULE
12004455
  46   48    0    0    0
SMALL
NO_CHARGES


@<TRIPOS>ATOM
   1 S1            -0.0196     1.7685    -0.0971 S.3     
   2 O2            -6.0134    -5.3126     0.2642 O.3     
   3 O3            -4.3397    -6.3222    -1.6724 O.3     
   4 O4            -7.5855     4.2803     0.0387 O.3     
   5 O5            -6.3357     4.2605     1.8610 O.2     
   6 O6             1.8354    -1.4873    -0.2625 O.2     
   7 N7            -4.0454     0.9962     0.8851 N.pl3   
   8 N8            -4.6190    -0.2189     0.5008 N.2     
   9 N9             2.2267     0.7034    -0.3050 N.2     
  10 N10            2.4530     3.0885    -0.3334 N.pl3   
  11 C11           -3.6678    -1.0491     0.1371 C.2     
  12 C12           -2.3942    -0.3363     0.2919 C.2     
  13 C13           -4.7883     2.1687     1.3535 C.3     
  14 C14           -2.7097     0.9246     0.7654 C.2     
  15 C15           -3.8469    -2.4413    -0.3388 C.ar    
  16 C16           -5.8410     2.5548     0.3125 C.3     
  17 C17           -1.0540    -0.8588     0.0075 C.2     
  18 C18           -4.8612    -3.2362     0.1937 C.ar    
  19 C19           -3.0051    -2.9564    -1.3237 C.ar    
  20 C20           -5.0253    -4.5347    -0.2535 C.ar    
  21 C21           -4.1781    -5.0455    -1.2337 C.ar    
  22 C22           -3.1731    -4.2523    -1.7668 C.ar    
  23 C23           -0.0003    -0.0072    -0.0939 C.2     
  24 C24           -6.6053     3.7610     0.7944 C.2     
  25 C25            1.4261    -0.3373    -0.2269 C.2     
  26 C26            1.7388     1.9209    -0.2627 C.2     
  27 C27           -6.8446    -4.7240     1.2665 C.3     
  28 C28           -3.4357    -6.7815    -2.6792 C.3     
  29 H29           -5.2800     1.9340     2.2976 H       
  30 H30           -4.0995     3.0008     1.4996 H       
  31 H31           -2.0074     1.7133     0.9915 H       
  32 H32           -5.3494     2.7896    -0.6316 H       
  33 H33           -6.5298     1.7228     0.1664 H       
  34 H34           -0.9045    -1.9206    -0.1213 H       
  35 H35           -5.5173    -2.8388     0.9540 H       
  36 H36           -2.2215    -2.3408    -1.7402 H       
  37 H37           -2.5205    -4.6498    -2.5300 H       
  38 H38           -7.5894    -5.4497     1.5931 H       
  39 H39           -6.2319    -4.4244     2.1167 H       
  40 H40           -7.3467    -3.8487     0.8541 H       
  41 H41           -3.6742    -7.8130    -2.9385 H       
  42 H42           -3.5289    -6.1534    -3.5652 H       
  43 H43           -2.4144    -6.7285    -2.3021 H       
  44 H44           -8.0474     5.0540     0.3897 H       
  45 H45            1.9931     3.9416    -0.2930 H       
  46 H46            3.4184     3.0617    -0.4240 H       
@<TRIPOS>BOND
   1    1   23 1
   2    1   26 1
   3    2   20 1
   4    2   27 1
   5    3   21 1
   6    3   28 1
   7    4   24 1
   8    4   44 1
   9    5   24 2
  10    6   25 2
  11    7    8 1
  12    7   13 1
  13    7   14 1
  14    8   11 2
  15    9   25 1
  16    9   26 2
  17   10   26 1
  18   10   45 1
  19   10   46 1
  20   11   12 1
  21   11   15 1
  22   12   14 2
  23   12   17 1
  24   13   16 1
  25   13   29 1
  26   13   30 1
  27   14   31 1
  28   15   18 ar
  29   15   19 ar
  30   16   24 1
  31   16   32 1
  32   16   33 1
  33   17   23 2
  34   17   34 1
  35   18   20 ar
  36   18   35 1
  37   19   22 ar
  38   19   36 1
  39   20   21 ar
  40   21   22 ar
  41   22   37 1
  42   23   25 1
  43   27   38 1
  44   27   39 1
  45   27   40 1
  46   28   41 1
  47   28   42 1
  48   28   43 1

#	End of record

#	Name: 12004450
#	Creating user name:	landrgr1
#	Creation time:	28. 01. 2015 13:52

#	Modifying user name:	landrgr1
#	Modification time:	28. 01. 2015 13:52

#	Program:	corina 3.48 0006  22.01.2010

@<TRIPOS>MOLECULE
12004450
  48   50    0    0    0
SMALL
NO_CHARGES


@<TRIPOS>ATOM
   1 Cl1           11.9071    12.3329    -0.0478 Cl      
   2 S2            -0.0227     1.8216     0.0121 S.3     
   3 O3             8.8424     6.4616    -0.0476 O.3     
   4 O4            10.1437     4.0381    -0.0829 O.3     
   5 O5             1.9275    -1.4451    -0.0245 O.2     
   6 O6            -2.9523    -0.5998    -2.2181 O.3     
   7 O7            -2.6043     0.3930    -0.2747 O.2     
   8 N8             2.2430     0.7489    -0.0153 N.2     
   9 N9             2.4590     3.1294    -0.0046 N.pl3   
  10 N10            3.8594     3.0918    -0.0182 N.2     
  11 C11            0.0021    -0.0041     0.0020 C.3     
  12 C12           -0.6798    -0.5496    -1.2543 C.3     
  13 C13            1.4849    -0.3128    -0.0138 C.2     
  14 C14            1.7452     1.9663    -0.0040 C.2     
  15 C15            8.1262     5.3054    -0.0465 C.ar    
  16 C16            8.1017     7.6835    -0.0350 C.3     
  17 C17            6.0120     4.1586    -0.0330 C.ar    
  18 C18            9.0563     8.8496    -0.0382 C.ar    
  19 C19            6.7446     5.3484    -0.0336 C.ar    
  20 C20            8.7850     4.0780    -0.0646 C.ar    
  21 C21           -2.1491    -0.2175    -1.2128 C.2     
  22 C22            6.6796     2.9312    -0.0455 C.ar    
  23 C23            8.0580     2.8965    -0.0636 C.ar    
  24 C24            4.5384     4.1981    -0.0187 C.2     
  25 C25            9.4830     9.3900    -1.2370 C.ar    
  26 C26            9.5004     9.3822     1.1577 C.ar    
  27 C27           10.3585    10.4594    -1.2406 C.ar    
  28 C28           10.3752    10.4523     1.1554 C.ar    
  29 C29           10.8075    10.9895    -0.0441 C.ar    
  30 C30           10.7545     2.7463    -0.1009 C.3     
  31 H31           -0.4696    -0.4024     0.9003 H       
  32 H32           -0.2297    -0.0968    -2.1377 H       
  33 H33           -0.5529    -1.6314    -1.2959 H       
  34 H34            7.4658     7.7321    -0.9189 H       
  35 H35            7.4821     7.7237     0.8609 H       
  36 H36            6.2327     6.2993    -0.0237 H       
  37 H37            6.1161     2.0098    -0.0451 H       
  38 H38            8.5728     1.9472    -0.0780 H       
  39 H39            1.9968     3.9822     0.0044 H       
  40 H40            4.0238     5.1476    -0.0087 H       
  41 H41            9.1324     8.9761    -2.1709 H       
  42 H42            9.1635     8.9623     2.0939 H       
  43 H43           10.6923    10.8810    -2.1772 H       
  44 H44           10.7222    10.8683     2.0897 H       
  45 H45           -3.8873    -0.3638    -2.1469 H       
  46 H46           10.4572     2.1914     0.7889 H       
  47 H47           10.4336     2.2050    -0.9909 H       
  48 H48           11.8388     2.8573    -0.1144 H       
@<TRIPOS>BOND
   1    1   29 1
   2    2   11 1
   3    2   14 1
   4    3   15 1
   5    3   16 1
   6    4   20 1
   7    4   30 1
   8    5   13 2
   9    6   21 1
  10    6   45 1
  11    7   21 2
  12    8   13 1
  13    8   14 2
  14    9   10 1
  15    9   14 1
  16    9   39 1
  17   10   24 2
  18   11   12 1
  19   11   13 1
  20   11   31 1
  21   12   21 1
  22   12   32 1
  23   12   33 1
  24   15   19 ar
  25   15   20 ar
  26   16   18 1
  27   16   34 1
  28   16   35 1
  29   17   19 ar
  30   17   22 ar
  31   17   24 1
  32   18   25 ar
  33   18   26 ar
  34   19   36 1
  35   20   23 ar
  36   22   23 ar
  37   22   37 1
  38   23   38 1
  39   24   40 1
  40   25   27 ar
  41   25   41 1
  42   26   28 ar
  43   26   42 1
  44   27   29 ar
  45   27   43 1
  46   28   29 ar
  47   28   44 1
  48   30   46 1
  49   30   47 1
  50   30   48 1

#	End of record

#	Name: 12004433
#	Creating user name:	landrgr1
#	Creation time:	28. 01. 2015 13:52

#	Modifying user name:	landrgr1
#	Modification time:	28. 01. 2015 13:52

#	Program:	corina 3.48 0006  22.01.2010

@<TRIPOS>MOLECULE
12004433
  40   42    0    0    0
SMALL
NO_CHARGES


@<TRIPOS>ATOM
   1 S1            -0.0218     1.7577     0.0117 S.3     
   2 O2             5.4034    10.2187     0.0058 O.3     
   3 O3             1.0371     4.3444     0.0155 O.2     
   4 N4            -1.1054    -0.8044     0.0083 N.pl3   
   5 N5             1.0847    -0.7425    -0.0131 N.2     
   6 N6             3.2396     4.0757    -0.0070 N.am    
   7 N7             3.4513     5.4606    -0.0016 N.2     
   8 C8            -0.6631    -2.1173    -0.0038 C.ar    
   9 C9             0.7405    -2.0569    -0.0174 C.ar    
  10 C10            0.0021    -0.0041     0.0020 C.2     
  11 C11           -1.3031    -3.3468    -0.0051 C.ar    
  12 C12           -2.5005    -0.3575     0.0194 C.3     
  13 C13            1.4794    -3.2422    -0.0312 C.ar    
  14 C14           -0.5585    -4.5089    -0.0197 C.ar    
  15 C15            0.8269    -4.4551    -0.0315 C.ar    
  16 C16            1.7562     2.0963    -0.0035 C.3     
  17 C17            1.9840     3.5860     0.0024 C.2     
  18 C18            6.3620     9.2703    -0.0089 C.2     
  19 C19            7.5771     9.8976    -0.0176 C.2     
  20 C20            6.1411     7.8252    -0.0146 C.2     
  21 C21            7.3183    11.2794    -0.0075 C.2     
  22 C22            4.8796     7.3331    -0.0052 C.2     
  23 C23            4.6658     5.9343    -0.0106 C.2     
  24 C24            5.9775    11.4326     0.0067 C.2     
  25 H25           -2.3819    -3.3954     0.0057 H       
  26 H26           -2.8408    -0.2542     1.0497 H       
  27 H27           -2.5778     0.6047    -0.4870 H       
  28 H28           -3.1209    -1.0904    -0.4964 H       
  29 H29            2.5588    -3.2076    -0.0421 H       
  30 H30           -1.0583    -5.4663    -0.0203 H       
  31 H31            1.3987    -5.3713    -0.0423 H       
  32 H32            2.2177     1.6547     0.8798 H       
  33 H33            2.2007     1.6643    -0.9001 H       
  34 H34            3.9966     3.4694    -0.0175 H       
  35 H35            8.5473     9.4235    -0.0295 H       
  36 H36            6.9840     7.1500    -0.0262 H       
  37 H37            8.0542    12.0698    -0.0100 H       
  38 H38            4.0368     8.0082     0.0065 H       
  39 H39            5.4525    12.3764     0.0165 H       
  40 H40            5.5086     5.2592    -0.0223 H       
@<TRIPOS>BOND
   1    1   10 1
   2    1   16 1
   3    2   18 1
   4    2   24 1
   5    3   17 2
   6    4    8 1
   7    4   10 1
   8    4   12 1
   9    5    9 1
  10    5   10 2
  11    6    7 1
  12    6   17 am
  13    6   34 1
  14    7   23 2
  15    8    9 ar
  16    8   11 ar
  17    9   13 ar
  18   11   14 ar
  19   11   25 1
  20   12   26 1
  21   12   27 1
  22   12   28 1
  23   13   15 ar
  24   13   29 1
  25   14   15 ar
  26   14   30 1
  27   15   31 1
  28   16   17 1
  29   16   32 1
  30   16   33 1
  31   18   19 2
  32   18   20 1
  33   19   21 1
  34   19   35 1
  35   20   22 2
  36   20   36 1
  37   21   24 2
  38   21   37 1
  39   22   23 1
  40   22   38 1
  41   23   40 1
  42   24   39 1

#	End of record

#	Name: 12004424
#	Creating user name:	landrgr1
#	Creation time:	28. 01. 2015 13:52

#	Modifying user name:	landrgr1
#	Modification time:	28. 01. 2015 13:52

#	Program:	corina 3.48 0006  22.01.2010

@<TRIPOS>MOLECULE
12004424
  48   50    0    0    0
SMALL
NO_CHARGES


@<TRIPOS>ATOM
   1 O1             1.7093    -0.2568     0.1722 O.2     
   2 O2            -1.0326    -3.7432     0.0716 O.2     
   3 O3             0.8836     1.8336    -2.7190 O.2     
   4 N4            -0.6009     1.4978    -0.5829 N.pl3   
   5 N5            -1.9089    -1.7696    -0.4020 N.am    
   6 N6             0.3638    -2.0329     0.1319 N.am    
   7 N7            -2.5564     0.6010    -0.8815 N.2     
   8 N8             2.2418     3.4117    -1.9523 N.am    
   9 N9             2.9348     3.4660    -3.1687 N.2     
  10 C10           -0.4752     0.1409    -0.3617 C.2     
  11 C11           -1.7378    -0.4038    -0.5594 C.2     
  12 C12            0.5933    -0.7105    -0.0069 C.2     
  13 C13            0.4658     2.4979    -0.4930 C.3     
  14 C14           -0.8630    -2.5466    -0.0628 C.2     
  15 C15           -1.8894     1.7268    -0.9029 C.2     
  16 C16           -3.2301    -2.3693    -0.6047 C.3     
  17 C17            1.4683    -2.9222     0.5000 C.3     
  18 C18            1.2112     2.5564    -1.8015 C.2     
  19 C19            4.6321     4.3475    -4.5457 C.2     
  20 C20            3.9306     4.2925    -3.3144 C.2     
  21 C21            6.2878     5.3776    -6.0182 C.ar    
  22 C22            5.6633     5.2033    -4.6966 C.2     
  23 C23            4.2251     3.4495    -5.6855 C.3     
  24 C24            5.4949     5.4292    -7.1688 C.ar    
  25 C25            7.6766     5.4980    -6.1288 C.ar    
  26 C26            6.0874     5.5926    -8.4032 C.ar    
  27 C27            8.2541     5.6610    -7.3703 C.ar    
  28 C28            7.4630     5.7049    -8.5051 C.ar    
  29 H29            0.0313     3.4743    -0.2785 H       
  30 H30            1.1549     2.2234     0.3057 H       
  31 H31           -2.3101     2.6943    -1.1339 H       
  32 H32           -3.3409    -2.6598    -1.6494 H       
  33 H33           -3.3307    -3.2498     0.0299 H       
  34 H34           -4.0018    -1.6445    -0.3453 H       
  35 H35            1.5252    -3.0007     1.5856 H       
  36 H36            1.2970    -3.9102     0.0727 H       
  37 H37            2.4044    -2.5173     0.1154 H       
  38 H38            2.5038     3.9896    -1.2186 H       
  39 H39            4.2223     4.9359    -2.4976 H       
  40 H40            6.0310     5.7609    -3.8478 H       
  41 H41            3.5220     3.9769    -6.3303 H       
  42 H42            5.1075     3.1708    -6.2614 H       
  43 H43            3.7512     2.5515    -5.2892 H       
  44 H44            4.4214     5.3410    -7.0909 H       
  45 H45            8.2952     5.4639    -5.2441 H       
  46 H46            5.4763     5.6327    -9.2928 H       
  47 H47            9.3265     5.7545    -7.4573 H       
  48 H48            7.9212     5.8324    -9.4747 H       
@<TRIPOS>BOND
   1    1   12 2
   2    2   14 2
   3    3   18 2
   4    4   10 1
   5    4   13 1
   6    4   15 1
   7    5   11 1
   8    5   14 am
   9    5   16 1
  10    6   12 am
  11    6   14 am
  12    6   17 1
  13    7   11 1
  14    7   15 2
  15    8    9 1
  16    8   18 am
  17    8   38 1
  18    9   20 2
  19   10   11 2
  20   10   12 1
  21   13   18 1
  22   13   29 1
  23   13   30 1
  24   15   31 1
  25   16   32 1
  26   16   33 1
  27   16   34 1
  28   17   35 1
  29   17   36 1
  30   17   37 1
  31   19   20 1
  32   19   22 2
  33   19   23 1
  34   20   39 1
  35   21   22 1
  36   21   24 ar
  37   21   25 ar
  38   22   40 1
  39   23   41 1
  40   23   42 1
  41   23   43 1
  42   24   26 ar
  43   24   44 1
  44   25   27 ar
  45   25   45 1
  46   26   28 ar
  47   26   46 1
  48   27   28 ar
  49   27   47 1
  50   28   48 1

#	End of record

#	Name: 11979288
#	Creating user name:	landrgr1
#	Creation time:	28. 01. 2015 13:52

#	Modifying user name:	landrgr1
#	Modification time:	28. 01. 2015 13:52

#	Program:	corina 3.48 0006  22.01.2010

@<TRIPOS>MOLECULE
11979288
  56   58    0    0    0
SMALL
NO_CHARGES


@<TRIPOS>ATOM
   1 Br1            0.0000     0.0000     0.0000 Br      
   2 O2             6.7156    13.4901     8.7359 O.3     
   3 O3             8.6984    16.9766     6.1629 O.3     
   4 O4             6.4651    15.7741     7.2251 O.3     
   5 O5            16.1774     9.8923     6.8533 O.2     
   6 N6            12.7153    14.2875     8.2162 N.pl3   
   7 N7            15.2267    11.1519     8.9479 N.ar    
   8 N8            11.7921    12.3023     8.3590 N.2     
   9 C9            13.7280    13.3900     8.4628 C.ar    
  10 C10           13.1200    12.1214     8.5518 C.ar    
  11 C11           11.5460    13.5750     8.1607 C.2     
  12 C12           13.9265    11.0091     8.8007 C.ar    
  13 C13           10.2085    14.1539     7.9145 C.ar    
  14 C14           15.1056    13.4808     8.6259 C.ar    
  15 C15           15.8237    12.3293     8.8679 C.ar    
  16 C16           16.0423     9.9631     9.2081 C.3     
  17 C17           12.8591    15.7360     8.0500 C.3     
  18 C18           10.0784    15.3100     7.1431 C.ar    
  19 C19            9.0730    13.5422     8.4483 C.ar    
  20 C20            7.8223    14.0859     8.2165 C.ar    
  21 C21            8.8257    15.8500     6.9141 C.ar    
  22 C22           16.5004     9.3720     7.8998 C.2     
  23 C23            7.6957    15.2417     7.4520 C.ar    
  24 C24           17.3398     8.1632     7.8922 C.ar    
  25 C25           17.7669     7.6116     6.6801 C.ar    
  26 C26           17.7192     7.5634     9.0973 C.ar    
  27 C27           18.5531     6.4788     6.6814 C.ar    
  28 C28           18.5057     6.4309     9.0819 C.ar    
  29 C29            6.9190    12.3065     9.5104 C.3     
  30 C30            9.9001    17.5485     5.6424 C.3     
  31 C31            5.9905    16.7364     8.1690 C.3     
  32 C32           18.9192     5.8875     7.8780 C.ar    
  33 H33           13.4817    10.0275     8.8725 H       
  34 H34           15.6044    14.4367     8.5637 H       
  35 H35           16.8943    12.3901     8.9970 H       
  36 H36           16.9109    10.2419     9.8047 H       
  37 H37           15.4494     9.2274     9.7514 H       
  38 H38           12.9309    15.9746     6.9889 H       
  39 H39           11.9915    16.2386     8.4776 H       
  40 H40           13.7618    16.0723     8.5600 H       
  41 H41           10.9552    15.7826     6.7257 H       
  42 H42            9.1708    12.6450     9.0414 H       
  43 H43           17.4814     8.0714     5.7455 H       
  44 H44           17.3973     7.9863    10.0375 H       
  45 H45           18.8837     6.0516     5.7462 H       
  46 H46           18.7998     5.9668    10.0116 H       
  47 H47            5.9576    11.9340     9.8640 H       
  48 H48            7.3984    11.5466     8.8934 H       
  49 H49            7.5561    12.5362    10.3645 H       
  50 H50           10.3991    16.8230     5.0000 H       
  51 H51            9.6573    18.4398     5.0638 H       
  52 H52           10.5603    17.8189     6.4664 H       
  53 H53            5.9342    16.2792     9.1569 H       
  54 H54            6.6752    17.5839     8.1993 H       
  55 H55            5.0000    17.0800     7.8707 H       
  56 H56           19.5346     5.0000     7.8724 H       
@<TRIPOS>BOND
   1    2   20 1
   2    2   29 1
   3    3   21 1
   4    3   30 1
   5    4   23 1
   6    4   31 1
   7    5   22 2
   8    6    9 1
   9    6   11 1
  10    6   17 1
  11    7   12 ar
  12    7   15 ar
  13    7   16 1
  14    8   10 1
  15    8   11 2
  16    9   10 ar
  17    9   14 ar
  18   10   12 ar
  19   11   13 1
  20   12   33 1
  21   13   18 ar
  22   13   19 ar
  23   14   15 ar
  24   14   34 1
  25   15   35 1
  26   16   22 1
  27   16   36 1
  28   16   37 1
  29   17   38 1
  30   17   39 1
  31   17   40 1
  32   18   21 ar
  33   18   41 1
  34   19   20 ar
  35   19   42 1
  36   20   23 ar
  37   21   23 ar
  38   22   24 1
  39   24   25 ar
  40   24   26 ar
  41   25   27 ar
  42   25   43 1
  43   26   28 ar
  44   26   44 1
  45   27   32 ar
  46   27   45 1
  47   28   32 ar
  48   28   46 1
  49   29   47 1
  50   29   48 1
  51   29   49 1
  52   30   50 1
  53   30   51 1
  54   30   52 1
  55   31   53 1
  56   31   54 1
  57   31   55 1
  58   32   56 1

#	End of record

#	Name: 11958899
#	Creating user name:	landrgr1
#	Creation time:	28. 01. 2015 13:52

#	Modifying user name:	landrgr1
#	Modification time:	28. 01. 2015 13:52

#	Program:	corina 3.48 0006  22.01.2010

@<TRIPOS>MOLECULE
11958899
  36   38    0    0    0
SMALL
NO_CHARGES


@<TRIPOS>ATOM
   1 O1            -0.0164     1.3612     0.0095 O.3     
   2 O2             2.0366     0.6696    -0.6532 O.3     
   3 O3            -1.7800    -9.4668     0.5616 O.2     
   4 N4            -5.7846   -10.9444     1.8496 N.pl3   
   5 N5            -5.1526    -9.8444     1.6474 N.2     
   6 N6            -3.1595    -7.7840     1.0087 N.am    
   7 N7            -2.1751    -6.8384     0.6929 N.2     
   8 C8             0.0021    -0.0041     0.0020 C.ar    
   9 C9             1.2664    -0.4298    -0.4059 C.ar    
  10 C10           -0.6883    -2.2990     0.2207 C.ar    
  11 C11           -0.9722    -0.9327     0.3142 C.ar    
  12 C12            1.5482    -1.7858    -0.4980 C.ar    
  13 C13            0.5821    -2.7183    -0.1877 C.ar    
  14 C14            1.3657     1.7641    -0.0015 C.3     
  15 C15           -1.7221    -3.2921     0.5523 C.2     
  16 C16           -4.9820   -11.9988     1.5899 C.2     
  17 C17           -3.9210   -10.0966     1.2506 C.2     
  18 C18           -3.7824   -11.5043     1.2043 C.2     
  19 C19           -5.3525   -13.4548     1.7079 C.3     
  20 C20           -1.4459    -4.6096     0.4613 C.2     
  21 C21           -2.8835    -9.1001     0.9178 C.2     
  22 C22           -2.4418    -5.5664     0.7808 C.2     
  23 H23           -1.9513    -0.6041     0.6303 H       
  24 H24            2.5282    -2.1113    -0.8144 H       
  25 H25            0.8054    -3.7725    -0.2609 H       
  26 H26            1.4917     2.6845    -0.5717 H       
  27 H27            1.7363     1.8891     1.0159 H       
  28 H28           -2.7020    -2.9664     0.8686 H       
  29 H29           -2.9044   -12.0657     0.9209 H       
  30 H30           -6.7048   -11.0084     2.1496 H       
  31 H31           -5.7566   -13.8050     0.7581 H       
  32 H32           -4.4660   -14.0359     1.9619 H       
  33 H33           -6.1029   -13.5766     2.4891 H       
  34 H34           -0.4659    -4.9353     0.1450 H       
  35 H35           -3.4218    -5.2407     1.0971 H       
  36 H36           -4.0396    -7.4915     1.2928 H       
@<TRIPOS>BOND
   1    1    8 1
   2    1   14 1
   3    2    9 1
   4    2   14 1
   5    3   21 2
   6    4    5 1
   7    4   16 1
   8    4   30 1
   9    5   17 2
  10    6    7 1
  11    6   21 am
  12    6   36 1
  13    7   22 2
  14    8    9 ar
  15    8   11 ar
  16    9   12 ar
  17   10   11 ar
  18   10   13 ar
  19   10   15 1
  20   11   23 1
  21   12   13 ar
  22   12   24 1
  23   13   25 1
  24   14   26 1
  25   14   27 1
  26   15   20 2
  27   15   28 1
  28   16   18 2
  29   16   19 1
  30   17   18 1
  31   17   21 1
  32   18   29 1
  33   19   31 1
  34   19   32 1
  35   19   33 1
  36   20   22 1
  37   20   34 1
  38   22   35 1

#	End of record

#	Name: 11958893
#	Creating user name:	landrgr1
#	Creation time:	28. 01. 2015 13:52

#	Modifying user name:	landrgr1
#	Modification time:	28. 01. 2015 13:52

#	Program:	corina 3.48 0006  22.01.2010

@<TRIPOS>MOLECULE
11958893
  55   59    0    0    0
SMALL
NO_CHARGES


@<TRIPOS>ATOM
   1 O1             2.6267    -6.7640    -0.0575 O.2     
   2 O2            -0.0164     1.3562     0.0095 O.3     
   3 O3            -2.2792    -0.1285     0.0236 O.2     
   4 N4             7.0582    -7.2530    -0.1019 N.pl3   
   5 N5             6.1631    -6.3316    -0.0892 N.2     
   6 N6             3.6586    -4.7972    -0.0576 N.am    
   7 N7             2.4380    -4.1098    -0.0423 N.pl3   
   8 C8             7.1824    -9.8012    -0.1147 C.3     
   9 C9             9.4102   -10.9278    -0.0140 C.3     
  10 C10            7.5905   -11.8828    -1.4349 C.3     
  11 C11            7.4208   -11.9960     1.0553 C.3     
  12 C12            8.6917    -9.5771    -0.0016 C.3     
  13 C13            6.8719   -10.5321    -1.4225 C.3     
  14 C14            6.7022   -10.6452     1.0677 C.3     
  15 C15            9.0997   -11.6586    -1.3218 C.3     
  16 C16            8.9300   -11.7718     1.1683 C.3     
  17 C17            7.1102   -12.7268    -0.2525 C.3     
  18 C18            6.4747    -8.4708    -0.1024 C.2     
  19 C19            5.1355    -8.2737    -0.0891 C.2     
  20 C20            4.9599    -6.8697    -0.0807 C.2     
  21 C21            3.6730    -6.1449    -0.0646 C.2     
  22 C22            2.4237    -2.7681    -0.0354 C.2     
  23 C23            1.2048    -2.0816    -0.0202 C.2     
  24 C24            1.1886    -0.6681    -0.0129 C.2     
  25 C25           -0.0108    -2.7996    -0.0178 C.2     
  26 C26            0.0021    -0.0041     0.0020 C.2     
  27 C27           -1.1937    -2.1328    -0.0029 C.2     
  28 C28           -1.2109    -0.7269     0.0102 C.2     
  29 C29            1.2479     2.0223     0.0010 C.3     
  30 H30           10.4855   -10.7681     0.0665 H       
  31 H31            7.3692   -12.4035    -2.3666 H       
  32 H32            7.0786   -12.5973     1.8976 H       
  33 H33            9.0338    -8.9758    -0.8439 H       
  34 H34            8.9129    -9.0564     0.9301 H       
  35 H35            5.7967   -10.6918    -1.5030 H       
  36 H36            7.2140    -9.9308    -2.2648 H       
  37 H37            6.9234   -10.1246     1.9994 H       
  38 H38            5.6270   -10.8049     0.9871 H       
  39 H39            9.4418   -11.0573    -2.1642 H       
  40 H40            9.6116   -12.6209    -1.3307 H       
  41 H41            9.4419   -12.7341     1.1595 H       
  42 H42            9.1512   -11.2511     2.1000 H       
  43 H43            6.0350   -12.8865    -0.3331 H       
  44 H44            7.6221   -13.6891    -0.2614 H       
  45 H45            4.3636    -9.0291    -0.0862 H       
  46 H46            8.0154    -7.0965    -0.1136 H       
  47 H47            4.4934    -4.3032    -0.0632 H       
  48 H48            1.6032    -4.6037    -0.0367 H       
  49 H49            3.3531    -2.2181    -0.0417 H       
  50 H50            2.1171    -0.1165    -0.0188 H       
  51 H51            0.0001    -3.8795    -0.0279 H       
  52 H52           -2.1229    -2.6833    -0.0019 H       
  53 H53            1.8173     1.7322     0.8840 H       
  54 H54            1.8003     1.7418    -0.8958 H       
  55 H55            1.0905     3.1008     0.0083 H       
@<TRIPOS>BOND
   1    1   21 2
   2    2   26 1
   3    2   29 1
   4    3   28 2
   5    4    5 1
   6    4   18 1
   7    4   46 1
   8    5   20 2
   9    6    7 1
  10    6   21 am
  11    6   47 1
  12    7   22 1
  13    7   48 1
  14    8   12 1
  15    8   13 1
  16    8   14 1
  17    8   18 1
  18    9   12 1
  19    9   15 1
  20    9   16 1
  21    9   30 1
  22   10   13 1
  23   10   15 1
  24   10   17 1
  25   10   31 1
  26   11   14 1
  27   11   16 1
  28   11   17 1
  29   11   32 1
  30   12   33 1
  31   12   34 1
  32   13   35 1
  33   13   36 1
  34   14   37 1
  35   14   38 1
  36   15   39 1
  37   15   40 1
  38   16   41 1
  39   16   42 1
  40   17   43 1
  41   17   44 1
  42   18   19 2
  43   19   20 1
  44   19   45 1
  45   20   21 1
  46   22   23 2
  47   22   49 1
  48   23   24 1
  49   23   25 1
  50   24   26 2
  51   24   50 1
  52   25   27 2
  53   25   51 1
  54   26   28 1
  55   27   28 1
  56   27   52 1
  57   29   53 1
  58   29   54 1
  59   29   55 1

#	End of record

#	Name: 11958853
#	Creating user name:	landrgr1
#	Creation time:	28. 01. 2015 13:52

#	Modifying user name:	landrgr1
#	Modification time:	28. 01. 2015 13:52

#	Program:	corina 3.48 0006  22.01.2010

@<TRIPOS>MOLECULE
11958853
  36   37    0    0    0
SMALL
NO_CHARGES


@<TRIPOS>ATOM
   1 S1            -0.0172     1.4168     0.0098 S.o2    
   2 O2            -1.6960     5.8205    -1.6775 O.3     
   3 O3             0.0021    -0.0041     0.0020 O.2     
   4 O4             1.1617     2.2101     0.0028 O.2     
   5 N5            -0.9002     1.8797    -1.3124 N.am    
   6 N6            -1.2154     3.2310    -1.5061 N.2     
   7 N7            -2.3324     2.6414    -3.4544 N.pl3   
   8 C8            -0.9297     1.8941     1.4396 C.ar    
   9 C9            -1.8430     1.0209     2.0000 C.ar    
  10 C10           -0.7281     3.1397     2.0041 C.ar    
  11 C11           -2.2434     5.0458    -2.7463 C.3     
  12 C12           -2.5589     1.3954     3.1217 C.ar    
  13 C13           -1.4439     3.5143     3.1258 C.ar    
  14 C14           -1.9044     3.5923    -2.5379 C.2     
  15 C15           -2.3611     2.6430     3.6832 C.ar    
  16 C16           -1.9126     7.1617    -1.7139 C.ar    
  17 C17           -1.4096     7.9742    -0.7082 C.ar    
  18 C18           -2.6322     7.7212    -2.7597 C.ar    
  19 C19           -1.6311     9.3372    -0.7474 C.ar    
  20 C20           -2.8511     9.0848    -2.7943 C.ar    
  21 C21           -2.3539     9.8917    -1.7876 C.ar    
  22 H22           -1.9975     0.0462     1.5614 H       
  23 H23           -0.0110     3.8202     1.5691 H       
  24 H24           -1.1992     1.2154    -1.9528 H       
  25 H25           -3.3265     5.1672    -2.7653 H       
  26 H26           -1.8231     5.3848    -3.6931 H       
  27 H27           -3.2730     0.7134     3.5591 H       
  28 H28           -1.2861     4.4873     3.5671 H       
  29 H29           -2.9207     2.9358     4.5593 H       
  30 H30           -0.8456     7.5416     0.1048 H       
  31 H31           -3.0207     7.0914    -3.5463 H       
  32 H32           -1.2398     9.9702     0.0352 H       
  33 H33           -3.4112     9.5208    -3.6082 H       
  34 H34           -2.5267    10.9574    -1.8161 H       
  35 H35           -2.1142     1.7058    -3.3203 H       
  36 H36           -2.8496     2.9126    -4.2289 H       
@<TRIPOS>BOND
   1    1    3 2
   2    1    4 2
   3    1    5 am
   4    1    8 1
   5    2   11 1
   6    2   16 1
   7    5    6 1
   8    5   24 1
   9    6   14 2
  10    7   14 1
  11    7   35 1
  12    7   36 1
  13    8    9 ar
  14    8   10 ar
  15    9   12 ar
  16    9   22 1
  17   10   13 ar
  18   10   23 1
  19   11   14 1
  20   11   25 1
  21   11   26 1
  22   12   15 ar
  23   12   27 1
  24   13   15 ar
  25   13   28 1
  26   15   29 1
  27   16   17 ar
  28   16   18 ar
  29   17   19 ar
  30   17   30 1
  31   18   20 ar
  32   18   31 1
  33   19   21 ar
  34   19   32 1
  35   20   21 ar
  36   20   33 1
  37   21   34 1

#	End of record

#	Name: 11958834
#	Creating user name:	landrgr1
#	Creation time:	28. 01. 2015 13:52

#	Modifying user name:	landrgr1
#	Modification time:	28. 01. 2015 13:52

#	Program:	corina 3.48 0006  22.01.2010

@<TRIPOS>MOLECULE
11958834
  37   38    0    0    0
SMALL
NO_CHARGES


@<TRIPOS>ATOM
   1 I1             0.0000     0.0000     0.0000 I       
   2 N2             7.0209    10.1292     7.5864 N.pl3   
   3 N3            15.4556    10.7891     6.6192 N.ar    
   4 C4             8.3851     8.3470     7.5638 C.ar    
   5 C5             9.1810     9.5877     7.5628 C.2     
   6 C6             7.0396     8.7504     7.5788 C.ar    
   7 C7             8.2916    10.6190     7.5769 C.2     
   8 C8            10.6472     9.6916     7.5498 C.2     
   9 C9             8.7075     6.9920     7.5534 C.ar    
  10 C10            6.0380     7.7851     7.5836 C.ar    
  11 C11            8.6581    12.0808     7.5808 C.3     
  12 C12           11.2572    10.4909     6.6556 C.2     
  13 C13            7.7009     6.0514     7.5588 C.ar    
  14 C14            6.3716     6.4482     7.5736 C.ar    
  15 C15           12.7252    10.5948     6.6425 C.ar    
  16 C16           13.3817    11.4219     5.7191 C.ar    
  17 C17           13.5079     9.8700     7.5535 C.ar    
  18 C18           14.7578    11.4887     5.7436 C.ar    
  19 C19           14.8789     9.9984     7.5052 C.ar    
  20 C20           16.9171    10.8886     6.6028 C.3     
  21 H21            6.2174    10.6727     7.5933 H       
  22 H22           11.2348     9.1263     8.2580 H       
  23 H23            9.7414     6.6803     7.5419 H       
  24 H24            5.0000     8.0831     7.5955 H       
  25 H25            8.7566    12.4279     8.6093 H       
  26 H26            9.6046    12.2194     7.0583 H       
  27 H27            7.8782    12.6522     7.0775 H       
  28 H28           10.6695    11.0561     5.9474 H       
  29 H29            7.9479     5.0000     7.5504 H       
  30 H30            5.5908     5.7021     7.5777 H       
  31 H31           12.8174    11.9970     5.0000 H       
  32 H32           13.0430     9.2217     8.2815 H       
  33 H33           15.2727    12.1228     5.0371 H       
  34 H34           15.4904     9.4446     8.2022 H       
  35 H35           17.2337    11.6972     7.2616 H       
  36 H36           17.3491     9.9490     6.9472 H       
  37 H37           17.2560    11.0936     5.5873 H       
@<TRIPOS>BOND
   1    2    6 1
   2    2    7 1
   3    2   21 1
   4    3   18 ar
   5    3   19 ar
   6    3   20 1
   7    4    5 1
   8    4    6 ar
   9    4    9 ar
  10    5    7 2
  11    5    8 1
  12    6   10 ar
  13    7   11 1
  14    8   12 2
  15    8   22 1
  16    9   13 ar
  17    9   23 1
  18   10   14 ar
  19   10   24 1
  20   11   25 1
  21   11   26 1
  22   11   27 1
  23   12   15 1
  24   12   28 1
  25   13   14 ar
  26   13   29 1
  27   14   30 1
  28   15   16 ar
  29   15   17 ar
  30   16   18 ar
  31   16   31 1
  32   17   19 ar
  33   17   32 1
  34   18   33 1
  35   19   34 1
  36   20   35 1
  37   20   36 1
  38   20   37 1

#	End of record

#	Name: 11958809
#	Creating user name:	landrgr1
#	Creation time:	28. 01. 2015 13:52

#	Modifying user name:	landrgr1
#	Modification time:	28. 01. 2015 13:52

#	Program:	corina 3.48 0006  22.01.2010

@<TRIPOS>MOLECULE
11958809
  37   39    0    0    0
SMALL
NO_CHARGES


@<TRIPOS>ATOM
   1 Cl1           -8.1643    -0.7177     4.3788 Cl      
   2 Cl2           -8.2180    -5.2724     1.4218 Cl      
   3 S3            -0.0218     1.7546     0.0117 S.3     
   4 O4            -4.9127    -3.7245     3.9797 O.3     
   5 O5            -2.8365    -2.1105     3.6762 O.2     
   6 N6            -2.8023    -2.0581     1.4586 N.am    
   7 N7            -6.3242    -3.7628     4.0532 N.2     
   8 C8            -4.5563    -3.3462     2.6346 C.3     
   9 C9            -5.8122    -2.5622     2.1845 C.3     
  10 C10           -6.8945    -3.1292     3.0834 C.2     
  11 C11           -3.3369    -2.4607     2.6284 C.2     
  12 C12           -1.6168    -1.1974     1.4526 C.3     
  13 C13           -8.3491    -2.9824     2.8836 C.ar    
  14 C14           -1.2174    -0.8895     0.0081 C.3     
  15 C15            0.0021    -0.0041     0.0020 C.2     
  16 C16           -9.0289    -1.8976     3.4438 C.ar    
  17 C17           -9.0528    -3.9243     2.1285 C.ar    
  18 C18            1.2646    -0.4342    -0.0123 C.2     
  19 C19          -10.3901    -1.7667     3.2521 C.ar    
  20 C20          -10.4139    -3.7799     1.9456 C.ar    
  21 C21          -11.0808    -2.7061     2.5077 C.ar    
  22 C22            2.2216     0.5659    -0.0161 C.2     
  23 C23            1.7362     1.8083    -0.0048 C.2     
  24 H24           -4.4009    -4.2259     2.0100 H       
  25 H25           -5.6846    -1.4939     2.3590 H       
  26 H26           -6.0368    -2.7601     1.1364 H       
  27 H27           -1.8409    -0.2667     1.9739 H       
  28 H28           -0.7953    -1.7070     1.9560 H       
  29 H29           -3.2024    -2.3383     0.6205 H       
  30 H30           -0.9932    -1.8202    -0.5131 H       
  31 H31           -2.0389    -0.3799    -0.4953 H       
  32 H32            1.5208    -1.4834    -0.0201 H       
  33 H33          -10.9169    -0.9290     3.6847 H       
  34 H34          -10.9591    -4.5069     1.3620 H       
  35 H35          -12.1454    -2.5986     2.3615 H       
  36 H36            3.2810     0.3563    -0.0270 H       
  37 H37            2.3315     2.7094    -0.0060 H       
@<TRIPOS>BOND
   1    1   16 1
   2    2   17 1
   3    3   15 1
   4    3   23 1
   5    4    7 1
   6    4    8 1
   7    5   11 2
   8    6   11 am
   9    6   12 1
  10    6   29 1
  11    7   10 2
  12    8    9 1
  13    8   11 1
  14    8   24 1
  15    9   10 1
  16    9   25 1
  17    9   26 1
  18   10   13 1
  19   12   14 1
  20   12   27 1
  21   12   28 1
  22   13   16 ar
  23   13   17 ar
  24   14   15 1
  25   14   30 1
  26   14   31 1
  27   15   18 2
  28   16   19 ar
  29   17   20 ar
  30   18   22 1
  31   18   32 1
  32   19   21 ar
  33   19   33 1
  34   20   21 ar
  35   20   34 1
  36   21   35 1
  37   22   23 2
  38   22   36 1
  39   23   37 1

#	End of record

#	Name: 11958796
#	Creating user name:	landrgr1
#	Creation time:	28. 01. 2015 13:52

#	Modifying user name:	landrgr1
#	Modification time:	28. 01. 2015 13:52

#	Program:	corina 3.48 0006  22.01.2010

@<TRIPOS>MOLECULE
11958796
  42   44    0    0    0
SMALL
NO_CHARGES


@<TRIPOS>ATOM
   1 O1            -0.1596     1.3896    -0.4494 O.3     
   2 O2             0.5853     3.4978    -1.8665 O.2     
   3 O3            -1.1014    -1.6105     0.8584 O.2     
   4 O4            -1.8421    -3.0600    -0.4836 O.2     
   5 N5             2.6236     3.7370    -1.0238 N.am    
   6 N6            -0.1182    -0.0229    -0.4019 N.2     
   7 N7            -0.9016    -2.4995     0.0501 N.pl3   
   8 C8             1.1870     1.8716    -0.2655 C.3     
   9 C9             2.0230     0.6689    -0.7644 C.3     
  10 C10            1.0703    -0.4961    -0.5747 C.2     
  11 C11            1.4425     3.0935    -1.1097 C.2     
  12 C12            1.4390    -1.9257    -0.5859 C.ar    
  13 C13            2.8721     4.9248    -1.8445 C.3     
  14 C14            0.4841    -2.8986    -0.2837 C.ar    
  15 C15            4.2559     5.4503    -1.5618 C.ar    
  16 C16            2.7423    -2.3112    -0.9043 C.ar    
  17 C17            5.3318     4.9977    -2.3024 C.ar    
  18 C18            4.4485     6.3891    -0.5656 C.ar    
  19 C19            0.8352    -4.2325    -0.2964 C.ar    
  20 C20            3.0800    -3.6489    -0.9133 C.ar    
  21 C21            6.7945     6.4146    -1.0433 C.ar    
  22 C22            2.1303    -4.6073    -0.6078 C.ar    
  23 C23            6.6011     5.4797    -2.0430 C.ar    
  24 C24            5.7179     6.8711    -0.3063 C.ar    
  25 C25            8.1784     6.9397    -0.7602 C.3     
  26 H26            1.3877     2.0769     0.7860 H       
  27 H27            2.2835     0.7885    -1.8160 H       
  28 H28            2.9177     0.5403    -0.1552 H       
  29 H29            2.7920     4.6610    -2.8991 H       
  30 H30            2.1360     5.6923    -1.6051 H       
  31 H31            3.3092     3.4136    -0.4185 H       
  32 H32            3.4846    -1.5640    -1.1434 H       
  33 H33            5.1807     4.2672    -3.0834 H       
  34 H34            3.6073     6.7463     0.0098 H       
  35 H35            0.0977    -4.9860    -0.0625 H       
  36 H36            4.0879    -3.9485    -1.1598 H       
  37 H37            2.4000    -5.6530    -0.6160 H       
  38 H38            7.4418     5.1255    -2.6212 H       
  39 H39            5.8683     7.6049     0.4718 H       
  40 H40            8.3638     7.8232    -1.3711 H       
  41 H41            8.2582     7.2039     0.2943 H       
  42 H42            8.9143     6.1719    -0.9991 H       
@<TRIPOS>BOND
   1    1    6 1
   2    1    8 1
   3    2   11 2
   4    3    7 2
   5    4    7 2
   6    5   11 am
   7    5   13 1
   8    5   31 1
   9    6   10 2
  10    7   14 1
  11    8    9 1
  12    8   11 1
  13    8   26 1
  14    9   10 1
  15    9   27 1
  16    9   28 1
  17   10   12 1
  18   12   14 ar
  19   12   16 ar
  20   13   15 1
  21   13   29 1
  22   13   30 1
  23   14   19 ar
  24   15   17 ar
  25   15   18 ar
  26   16   20 ar
  27   16   32 1
  28   17   23 ar
  29   17   33 1
  30   18   24 ar
  31   18   34 1
  32   19   22 ar
  33   19   35 1
  34   20   22 ar
  35   20   36 1
  36   21   23 ar
  37   21   24 ar
  38   21   25 1
  39   22   37 1
  40   23   38 1
  41   24   39 1
  42   25   40 1
  43   25   41 1
  44   25   42 1

#	End of record

#	Name: 11958786
#	Creating user name:	landrgr1
#	Creation time:	28. 01. 2015 13:52

#	Modifying user name:	landrgr1
#	Modification time:	28. 01. 2015 13:52

#	Program:	corina 3.48 0006  22.01.2010

@<TRIPOS>MOLECULE
11958786
  46   49    0    0    0
SMALL
NO_CHARGES


@<TRIPOS>ATOM
   1 S1             0.6564     1.4680     1.4041 S.3     
   2 F2            -2.2404     7.7861     0.2087 F       
   3 F3            -1.2777     7.2405     2.2074 F       
   4 F4            -3.3369     6.4115     1.6672 F       
   5 O5            -2.0004    -2.5890    -3.2633 O.2     
   6 O6             2.3570    -2.3243    -4.3689 O.2     
   7 N7             0.2140    -2.1781    -3.6088 N.am    
   8 N8             1.6935     0.7754    -0.7749 N.2     
   9 N9             5.1197     2.7521    -0.4197 N.1     
  10 C10            0.3584    -0.9953    -2.7565 C.3     
  11 C11            0.7403    -1.4307    -1.3403 C.3     
  12 C12           -0.6838    -3.9805    -4.7075 C.ar    
  13 C13            0.6804    -3.8976    -5.0536 C.ar    
  14 C14           -0.9350    -2.8561    -3.7815 C.2     
  15 C15            1.2116    -2.7257    -4.3262 C.2     
  16 C16            0.8888    -0.2140    -0.4636 C.2     
  17 C17           -1.4688    -4.9915    -5.2372 C.ar    
  18 C18            1.2284    -4.8273    -5.9221 C.ar    
  19 C19           -0.9064    -5.9154    -6.1047 C.ar    
  20 C20            0.4304    -5.8334    -6.4451 C.ar    
  21 C21            0.2089    -0.0753     0.6800 C.2     
  22 C22            1.7454     1.7799     0.0549 C.2     
  23 C23            2.5811     2.9838    -0.1099 C.2     
  24 C24            0.5433     4.3484    -0.0828 C.ar    
  25 C25            2.0059     4.2195    -0.0977 C.2     
  26 C26           -0.0589     5.4631     0.5125 C.ar    
  27 C27           -1.4329     5.5762     0.5222 C.ar    
  28 C28           -0.2566     3.3599    -0.6689 C.ar    
  29 C29           -2.2164     4.5917    -0.0545 C.ar    
  30 C30           -1.6287     3.4887    -0.6504 C.ar    
  31 C31           -2.0836     6.7750     1.1629 C.3     
  32 C32            3.9967     2.8546    -0.2827 C.1     
  33 H33            1.1378    -0.3493    -3.1606 H       
  34 H34           -0.5856    -0.4511    -2.7272 H       
  35 H35           -0.0391    -2.0767    -0.9363 H       
  36 H36            1.6843    -1.9749    -1.3696 H       
  37 H37           -2.5143    -5.0601    -4.9752 H       
  38 H38            2.2727    -4.7685    -6.1911 H       
  39 H39           -1.5176    -6.7040    -6.5182 H       
  40 H40            0.8568    -6.5587    -7.1223 H       
  41 H41           -0.4931    -0.7867     1.0894 H       
  42 H42            2.6260     5.1037    -0.0990 H       
  43 H43            0.5510     6.2320     0.9632 H       
  44 H44            0.2003     2.4991    -1.1345 H       
  45 H45           -3.2922     4.6863    -0.0432 H       
  46 H46           -2.2472     2.7272    -1.1021 H       
@<TRIPOS>BOND
   1    1   21 1
   2    1   22 1
   3    2   31 1
   4    3   31 1
   5    4   31 1
   6    5   14 2
   7    6   15 2
   8    7   10 1
   9    7   14 am
  10    7   15 am
  11    8   16 1
  12    8   22 2
  13    9   32 3
  14   10   11 1
  15   10   33 1
  16   10   34 1
  17   11   16 1
  18   11   35 1
  19   11   36 1
  20   12   13 ar
  21   12   14 1
  22   12   17 ar
  23   13   15 1
  24   13   18 ar
  25   16   21 2
  26   17   19 ar
  27   17   37 1
  28   18   20 ar
  29   18   38 1
  30   19   20 ar
  31   19   39 1
  32   20   40 1
  33   21   41 1
  34   22   23 1
  35   23   25 2
  36   23   32 1
  37   24   25 1
  38   24   26 ar
  39   24   28 ar
  40   25   42 1
  41   26   27 ar
  42   26   43 1
  43   27   29 ar
  44   27   31 1
  45   28   30 ar
  46   28   44 1
  47   29   30 ar
  48   29   45 1
  49   30   46 1

#	End of record

#	Name: 11958783
#	Creating user name:	landrgr1
#	Creation time:	28. 01. 2015 13:52

#	Modifying user name:	landrgr1
#	Modification time:	28. 01. 2015 13:52

#	Program:	corina 3.48 0006  22.01.2010

@<TRIPOS>MOLECULE
11958783
  28   28    0    0    0
SMALL
NO_CHARGES


@<TRIPOS>ATOM
   1 Br1            3.8831     6.6804     0.0010 Br      
   2 Br2           -1.7536     6.4715     0.0386 Br      
   3 O3             3.4508     3.6773    -0.0103 O.2     
   4 N4            -0.0169     1.3968     0.0097 N.pl3   
   5 N5             0.0021    -0.0041     0.0020 N.pl3   
   6 N6            -1.3239    -2.0710     0.0036 N.pl3   
   7 N7            -2.3985    -0.2059     0.0243 N.2     
   8 N8            -0.3222    -2.9996    -0.0118 N.3     
   9 N9            -3.2687    -1.1518     0.0245 N.2     
  10 C10            1.1167     3.4800     0.0101 C.2     
  11 C11            1.1356     2.0833     0.0024 C.2     
  12 C12           -1.1885    -0.7132     0.0096 C.2     
  13 C13            2.3684     4.2474     0.0023 C.2     
  14 C14           -0.1073     4.1854     0.0196 C.2     
  15 C15            2.2963     5.6519     0.0100 C.2     
  16 C16           -0.1052     5.5450     0.0265 C.2     
  17 C17            1.0835     6.2709     0.0244 C.2     
  18 C18           -2.6704    -2.3092     0.0101 C.2     
  19 H19            2.0781     1.5561    -0.0094 H       
  20 H20           -1.0428     3.6457     0.0210 H       
  21 H21            0.8486    -0.4776    -0.0086 H       
  22 H22           -0.8635     1.8703     0.0163 H       
  23 H23            1.0424     7.3501     0.0306 H       
  24 H24           -3.1492    -3.2772     0.0044 H       
  25 H25           -0.0474    -3.2506     0.9261 H       
  26 H26           -0.5937    -3.8156    -0.5396 H       
  27 Cl27           8.8831    12.3501     5.9261 Cl      
  28 H28            8.8831    13.7201     5.9261 H       
@<TRIPOS>BOND
   1    1   15 1
   2    2   16 1
   3    3   13 2
   4    4    5 1
   5    4   11 1
   6    4   22 1
   7    5   12 1
   8    5   21 1
   9    6    8 1
  10    6   12 1
  11    6   18 1
  12    7    9 1
  13    7   12 2
  14    8   25 1
  15    8   26 1
  16    9   18 2
  17   10   11 2
  18   10   13 1
  19   10   14 1
  20   11   19 1
  21   13   15 1
  22   14   16 2
  23   14   20 1
  24   15   17 2
  25   16   17 1
  26   17   23 1
  27   18   24 1
  28   27   28 1

#	End of record

#	Name: 11958777
#	Creating user name:	landrgr1
#	Creation time:	28. 01. 2015 13:52

#	Modifying user name:	landrgr1
#	Modification time:	28. 01. 2015 13:52

#	Program:	corina 3.48 0006  22.01.2010

@<TRIPOS>MOLECULE
11958777
  37   36    0    0    0
SMALL
NO_CHARGES


@<TRIPOS>ATOM
   1 I1             0.0000     0.0000     0.0000 I       
   2 O2             6.3265     6.8089    10.6232 O.2     
   3 O3            10.1229     6.8622     8.3785 O.2     
   4 N4             6.7331    10.8224     7.0869 N.4     
   5 N5             8.2223     6.8316     9.4968 N.am    
   6 C6             6.7530     9.3535     7.0788 C.3     
   7 C7             7.4930     8.8467     8.3183 C.3     
   8 C8             7.5137     7.3169     8.3099 C.3     
   9 C9             8.1112    11.3309     7.0765 C.3     
  10 C10            6.0226    11.3090     5.8968 C.3     
  11 C11            6.0455    11.2961     8.2955 C.3     
  12 C12            9.6416     6.5744    11.8943 C.3     
  13 C13            8.1881     6.0898    11.8660 C.3     
  14 C14           10.3300     6.1203    10.5998 C.3     
  15 C15            7.5208     6.6011    10.6167 C.2     
  16 C16            9.5462     6.6300     9.4193 C.2     
  17 H17            5.7304     8.9763     7.0866 H       
  18 H18            7.2632     9.0020     6.1820 H       
  19 H19            8.5156     9.2240     8.3106 H       
  20 H20            6.9828     9.1982     9.2151 H       
  21 H21            8.0239     6.9654     7.4131 H       
  22 H22            6.4912     6.9396     8.3177 H       
  23 H23            8.6214    10.9793     6.1797 H       
  24 H24            8.0965    12.4207     7.0825 H       
  25 H25            8.6384    10.9698     7.9595 H       
  26 H26            5.0000    10.9317     5.9045 H       
  27 H27            6.0078    12.3989     5.9028 H       
  28 H28            6.5328    10.9575     5.0000 H       
  29 H29            6.5727    10.9351     9.1786 H       
  30 H30            6.0307    12.3860     8.3015 H       
  31 H31            5.0229    10.9189     8.3033 H       
  32 H32            9.6636     7.6620    11.9621 H       
  33 H33           10.1553     6.1410    12.7524 H       
  34 H34            8.1672     5.0000    11.8726 H       
  35 H35            7.6602     6.4704    12.7404 H       
  36 H36           11.3421     6.5233    10.5648 H       
  37 H37           10.3693     5.0314    10.5708 H       
@<TRIPOS>BOND
   1    2   15 2
   2    3   16 2
   3    4    6 1
   4    4    9 1
   5    4   10 1
   6    4   11 1
   7    5    8 1
   8    5   15 am
   9    5   16 am
  10    6    7 1
  11    6   17 1
  12    6   18 1
  13    7    8 1
  14    7   19 1
  15    7   20 1
  16    8   21 1
  17    8   22 1
  18    9   23 1
  19    9   24 1
  20    9   25 1
  21   10   26 1
  22   10   27 1
  23   10   28 1
  24   11   29 1
  25   11   30 1
  26   11   31 1
  27   12   13 1
  28   12   14 1
  29   12   32 1
  30   12   33 1
  31   13   15 1
  32   13   34 1
  33   13   35 1
  34   14   16 1
  35   14   36 1
  36   14   37 1

#	End of record

#	Name: 11958767
#	Creating user name:	landrgr1
#	Creation time:	28. 01. 2015 13:52

#	Modifying user name:	landrgr1
#	Modification time:	28. 01. 2015 13:52

#	Program:	corina 3.48 0006  22.01.2010

@<TRIPOS>MOLECULE
11958767
  22   23    0    0    0
SMALL
NO_CHARGES


@<TRIPOS>ATOM
   1 S1            -0.0211     1.7077     0.0114 S.3     
   2 O2            -2.3069    -2.8252     0.5336 O.3     
   3 O3            -0.3059    -2.8384    -0.4690 O.2     
   4 O4            -6.9048    -3.1405    -0.0173 O.2     
   5 N5             1.1879    -0.6674    -0.0129 N.pl3   
   6 C6            -3.6161    -0.8664     0.0622 C.2     
   7 C7            -3.5131    -2.2592     0.2857 C.2     
   8 C8            -2.4536    -0.0748     0.0251 C.2     
   9 C9            -1.2146    -0.7287     0.0097 C.2     
  10 C10           -4.8814    -0.2777    -0.1364 C.2     
  11 C11           -4.6482    -3.0407     0.2506 C.2     
  12 C12           -1.2305    -2.2026     0.0015 C.2     
  13 C13           -5.9950    -1.0528    -0.1572 C.2     
  14 C14           -5.8956    -2.4459     0.0239 C.2     
  15 C15            0.0021    -0.0041     0.0020 C.2     
  16 H16           -2.5144     1.0033     0.0093 H       
  17 H17           -4.9646     0.7906    -0.2719 H       
  18 H18           -4.5757    -4.1083     0.3970 H       
  19 H19           -6.9625    -0.5991    -0.3136 H       
  20 H20            2.0212    -0.1710    -0.0182 H       
  21 H21            1.2010    -1.6373    -0.0182 H       
  22 H22            1.3639     1.9715    -0.0004 H       
@<TRIPOS>BOND
   1    1   15 1
   2    1   22 1
   3    2    7 1
   4    2   12 1
   5    3   12 2
   6    4   14 2
   7    5   15 1
   8    5   20 1
   9    5   21 1
  10    6    7 1
  11    6    8 2
  12    6   10 1
  13    7   11 2
  14    8    9 1
  15    8   16 1
  16    9   12 1
  17    9   15 2
  18   10   13 2
  19   10   17 1
  20   11   14 1
  21   11   18 1
  22   13   14 1
  23   13   19 1

#	End of record

#	Name: 11958763
#	Creating user name:	landrgr1
#	Creation time:	28. 01. 2015 13:52

#	Modifying user name:	landrgr1
#	Modification time:	28. 01. 2015 13:52

#	Program:	corina 3.48 0006  22.01.2010

@<TRIPOS>MOLECULE
11958763
  35   35    0    0    0
SMALL
NO_CHARGES


@<TRIPOS>ATOM
   1 Cl1            1.8638    -4.2451     2.1479 Cl      
   2 O2             0.0840     0.3231     2.1412 O.2     
   3 O3             1.3881    -4.1987     7.4176 O.2     
   4 O4             0.1725    -2.5602     7.9545 O.2     
   5 N5            -0.0020     1.2918    -0.2946 N.ar    
   6 N6             0.1880    -1.8382     1.6512 N.am    
   7 N7             0.7228    -3.2296     7.0986 N.pl3   
   8 C8             0.0749    -0.1657    -0.1677 C.3     
   9 C9             1.1113     1.9984    -0.2672 C.ar    
  10 C10            0.1159    -0.5414     1.2911 C.2     
  11 C11           -1.1820     1.8623    -0.4386 C.ar    
  12 C12            1.0779     3.3748    -0.3845 C.ar    
  13 C13            0.3206    -2.1834     3.0013 C.ar    
  14 C14            2.4351     1.2965    -0.1057 C.3     
  15 C15           -1.2934     3.2345    -0.5622 C.ar    
  16 C16           -0.1454     4.0109    -0.5322 C.ar    
  17 C17            1.0794    -3.2888     3.3661 C.ar    
  18 C18           -0.3010    -1.4185     3.9793 C.ar    
  19 C19            0.5831    -2.8653     5.6707 C.ar    
  20 C20            1.2084    -3.6262     4.7004 C.ar    
  21 C21           -0.1680    -1.7613     5.3107 C.ar    
  22 H22           -0.8000    -0.6177    -0.6349 H       
  23 H23            0.9774    -0.5263    -0.6613 H       
  24 H24           -2.0716     1.2504    -0.4606 H       
  25 H25            1.9930     3.9479    -0.3610 H       
  26 H26            0.1480    -2.5323     0.9749 H       
  27 H27            2.8335     1.0419    -1.0878 H       
  28 H28            3.1343     1.9541     0.4108 H       
  29 H29            2.2948     0.3859     0.4768 H       
  30 H30           -2.2627     3.6959    -0.6806 H       
  31 H31           -0.2020     5.0854    -0.6258 H       
  32 H32           -0.8878    -0.5562     3.6993 H       
  33 H33            1.7979    -4.4852     4.9851 H       
  34 H34           -0.6514    -1.1666     6.0715 H       
  35 Cl35           8.1343    10.0854    12.9545 Cl      
@<TRIPOS>BOND
   1    1   17 1
   2    2   10 2
   3    3    7 2
   4    4    7 2
   5    5    8 1
   6    5    9 ar
   7    5   11 ar
   8    6   10 am
   9    6   13 1
  10    6   26 1
  11    7   19 1
  12    8   10 1
  13    8   22 1
  14    8   23 1
  15    9   12 ar
  16    9   14 1
  17   11   15 ar
  18   11   24 1
  19   12   16 ar
  20   12   25 1
  21   13   17 ar
  22   13   18 ar
  23   14   27 1
  24   14   28 1
  25   14   29 1
  26   15   16 ar
  27   15   30 1
  28   16   31 1
  29   17   20 ar
  30   18   21 ar
  31   18   32 1
  32   19   20 ar
  33   19   21 ar
  34   20   33 1
  35   21   34 1

#	End of record

#	Name: 11958757
#	Creating user name:	landrgr1
#	Creation time:	28. 01. 2015 13:52

#	Modifying user name:	landrgr1
#	Modification time:	28. 01. 2015 13:52

#	Program:	corina 3.48 0006  22.01.2010

@<TRIPOS>MOLECULE
11958757
  46   47    0    0    0
SMALL
NO_CHARGES


@<TRIPOS>ATOM
   1 Br1            0.0000     0.0000     0.0000 Br      
   2 O2            11.0443     8.1795     8.0811 O.2     
   3 N3             8.1352    11.2194     6.8783 N.pl3   
   4 N4            10.6061    10.0727     6.3198 N.2     
   5 C5            10.5986    11.3381     6.6240 C.2     
   6 C6             8.2025     9.7546     6.8959 C.3     
   7 C7             9.3970     9.3060     6.0545 C.3     
   8 C8             9.2889    11.9822     6.7628 C.2     
   9 C9            11.8791    12.1071     6.8239 C.3     
  10 C10            7.0810    12.0500     6.9663 C.2     
  11 C11           11.8970     9.3846     6.2400 C.3     
  12 C12            8.9283    13.2956     6.7969 C.2     
  13 C13            7.5301    13.3311     6.9242 C.2     
  14 C14           12.3698    11.9161     8.2604 C.3     
  15 C15            5.6394    11.6288     7.0906 C.3     
  16 C16           11.9751     8.3363     7.3199 C.2     
  17 C17           13.6698    12.6968     8.4634 C.3     
  18 C18           13.1810     7.5030     7.4507 C.ar    
  19 C19           13.2573     6.5292     8.4516 C.ar    
  20 C20           14.2543     7.6770     6.5711 C.ar    
  21 C21           14.3907     5.7524     8.5676 C.ar    
  22 C22           15.3808     6.8923     6.7002 C.ar    
  23 C23           15.4511     5.9348     7.6971 C.ar    
  24 H24            9.1411     9.4096     5.0000 H       
  25 H25            9.5964     8.2547     6.2621 H       
  26 H26            8.3270     9.4070     7.9215 H       
  27 H27            7.2849     9.3417     6.4770 H       
  28 H28           12.6354    11.7404     6.1298 H       
  29 H29           11.6995    13.1662     6.6391 H       
  30 H30           11.9955     8.9090     5.2642 H       
  31 H31           12.7024    10.1064     6.3754 H       
  32 H32            9.5907    14.1465     6.7371 H       
  33 H33            6.9197    14.2204     6.9790 H       
  34 H34           11.6136    12.2828     8.9545 H       
  35 H35           12.5494    10.8570     8.4452 H       
  36 H36            5.3793    11.5298     8.1445 H       
  37 H37            5.0000    12.3804     6.6276 H       
  38 H38            5.4961    10.6714     6.5896 H       
  39 H39           13.4902    13.7559     8.2786 H       
  40 H40           14.0194    12.5607     9.4868 H       
  41 H41           14.4261    12.3300     7.7693 H       
  42 H42           12.4309     6.3862     9.1320 H       
  43 H43           14.2009     8.4236     5.7927 H       
  44 H44           14.4511     5.0000     9.3400 H       
  45 H45           16.2103     7.0251     6.0215 H       
  46 H46           16.3364     5.3238     7.7936 H       
@<TRIPOS>BOND
   1    2   16 2
   2    3    6 1
   3    3    8 1
   4    3   10 1
   5    4    5 2
   6    4    7 1
   7    4   11 1
   8    5    8 1
   9    5    9 1
  10    6    7 1
  11    6   26 1
  12    6   27 1
  13    7   24 1
  14    7   25 1
  15    8   12 2
  16    9   14 1
  17    9   28 1
  18    9   29 1
  19   10   13 2
  20   10   15 1
  21   11   16 1
  22   11   30 1
  23   11   31 1
  24   12   13 1
  25   12   32 1
  26   13   33 1
  27   14   17 1
  28   14   34 1
  29   14   35 1
  30   15   36 1
  31   15   37 1
  32   15   38 1
  33   16   18 1
  34   17   39 1
  35   17   40 1
  36   17   41 1
  37   18   19 ar
  38   18   20 ar
  39   19   21 ar
  40   19   42 1
  41   20   22 ar
  42   20   43 1
  43   21   23 ar
  44   21   44 1
  45   22   23 ar
  46   22   45 1
  47   23   46 1

#	End of record

#	Name: 11958752
#	Creating user name:	landrgr1
#	Creation time:	28. 01. 2015 13:52

#	Modifying user name:	landrgr1
#	Modification time:	28. 01. 2015 13:52

#	Program:	corina 3.48 0006  22.01.2010

@<TRIPOS>MOLECULE
11958752
  35   37    0    0    0
SMALL
NO_CHARGES


@<TRIPOS>ATOM
   1 Br1            0.0000     0.0000     0.0000 Br      
   2 S2             7.8497    12.1949     9.0800 S.3     
   3 N3             8.9105     9.7214     8.4864 N.pl3   
   4 N4             6.9937     9.6056     9.5704 N.pl3   
   5 N5             9.9923    10.3472     7.8634 N.2     
   6 C6             8.6297     8.3940     8.6548 C.ar    
   7 C7             7.3955     8.3362     9.3520 C.ar    
   8 C8             7.8737    10.4291     9.0703 C.cat   
   9 C9            10.3181    11.5686     8.0944 C.2     
  10 C10            9.6390    12.4863     9.0645 C.3     
  11 C11            9.2987     7.2341     8.2852 C.ar    
  12 C12            6.8182     7.1071     9.6867 C.ar    
  13 C13            5.7627     9.9978    10.2610 C.3     
  14 C14           11.4603    12.1149     7.3380 C.ar    
  15 C15            8.7077     6.0275     8.6271 C.ar    
  16 C16            7.5047     5.9666     9.3077 C.ar    
  17 C17           12.1393    11.3142     6.4166 C.ar    
  18 C18           11.8646    13.4374     7.5355 C.ar    
  19 C19           13.2063    11.8320     5.7125 C.ar    
  20 C20           12.9334    13.9418     6.8243 C.ar    
  21 C21           13.6046    13.1412     5.9171 C.ar    
  22 H22            9.8318    13.5196     8.7761 H       
  23 H23           10.0395    12.3125    10.0633 H       
  24 H24           10.2384     7.2707     7.7541 H       
  25 H25            5.8793     7.0504    10.2174 H       
  26 H26            5.9616    10.1007    11.3278 H       
  27 H27            5.4107    10.9498     9.8636 H       
  28 H28            5.0000     9.2349    10.1055 H       
  29 H29            9.2018     5.1067     8.3542 H       
  30 H30            7.0885     5.0000     9.5500 H       
  31 H31           11.8297    10.2920     6.2562 H       
  32 H32           11.3413    14.0634     8.2431 H       
  33 H33           13.7325    11.2139     5.0000 H       
  34 H34           13.2468    14.9642     6.9758 H       
  35 H35           14.4410    13.5413     5.3632 H       
@<TRIPOS>BOND
   1    2    8 1
   2    2   10 1
   3    3    5 1
   4    3    6 1
   5    3    8 ar
   6    4    7 1
   7    4    8 ar
   8    4   13 1
   9    5    9 2
  10    6    7 ar
  11    6   11 ar
  12    7   12 ar
  13    9   10 1
  14    9   14 1
  15   10   22 1
  16   10   23 1
  17   11   15 ar
  18   11   24 1
  19   12   16 ar
  20   12   25 1
  21   13   26 1
  22   13   27 1
  23   13   28 1
  24   14   17 ar
  25   14   18 ar
  26   15   16 ar
  27   15   29 1
  28   16   30 1
  29   17   19 ar
  30   17   31 1
  31   18   20 ar
  32   18   32 1
  33   19   21 ar
  34   19   33 1
  35   20   21 ar
  36   20   34 1
  37   21   35 1

#	End of record

#	Name: 11958728
#	Creating user name:	landrgr1
#	Creation time:	28. 01. 2015 13:52

#	Modifying user name:	landrgr1
#	Modification time:	28. 01. 2015 13:52

#	Program:	corina 3.48 0006  22.01.2010

@<TRIPOS>MOLECULE
11958728
  53   53    0    0    0
SMALL
NO_CHARGES


@<TRIPOS>ATOM
   1 Cl1            0.0000     0.0000     0.0000 Cl      
   2 H2             0.0000     1.3700     0.0000 H       
   3 S3            14.2578     8.1296     9.3746 S.2     
   4 N4             9.2141     9.4939     7.4788 N.3     
   5 N5            11.7969     7.9427    10.3562 N.am    
   6 N6            13.5359     7.7024    11.8948 N.am    
   7 C7             9.2372     8.0351     7.5610 C.3     
   8 C8            10.5694    10.0390     7.4456 C.3     
   9 C9             9.9482     7.5626     8.8198 C.3     
  10 C10           11.3455     9.6678     8.7001 C.3     
  11 C11           11.3368     8.1693     8.9720 C.3     
  12 C12            9.8852     7.4564     6.3073 C.3     
  13 C13           11.2884     9.5640     6.1871 C.3     
  14 C14           11.2612     8.0495     6.0416 C.3     
  15 C15            8.3739    10.1112     8.5019 C.3     
  16 C16            6.9119     9.7312     8.2588 C.3     
  17 C17            6.0415    10.3123     9.3750 C.3     
  18 C18            6.4559    10.2940     6.9111 C.3     
  19 C19           13.1159     7.9093    10.6309 C.2     
  20 C20           14.9697     7.6661    12.1934 C.3     
  21 C21           15.1729     7.4184    13.6895 C.3     
  22 C22           16.6703     7.3805    14.0014 C.3     
  23 H23            8.1951     7.6803     7.5998 H       
  24 H24           10.4931    11.1369     7.3997 H       
  25 H25            9.3455     7.8041     9.7009 H       
  26 H26           10.0427     6.4677     8.7828 H       
  27 H27           12.3871    10.0000     8.5828 H       
  28 H28           10.9334    10.1984     9.5639 H       
  29 H29           12.0440     7.6626     8.3142 H       
  30 H30            9.9740     6.3700     6.4212 H       
  31 H31            9.2340     7.6507     5.4475 H       
  32 H32           10.8137    10.0212     5.3115 H       
  33 H33           12.3290     9.9066     6.2206 H       
  34 H34           12.0134     7.5846     6.6744 H       
  35 H35           11.5426     7.8027     5.0000 H       
  36 H36            8.6820     9.7590     9.4863 H       
  37 H37            8.4803    11.1950     8.4541 H       
  38 H38            6.8153     8.6455     8.2506 H       
  39 H39           11.1499     7.8179    11.0680 H       
  40 H40            6.1382    11.3979     9.3832 H       
  41 H41            5.0000    10.0415     9.2018 H       
  42 H42            6.3664     9.9113    10.3351 H       
  43 H43            7.0158     9.8137     6.1087 H       
  44 H44            5.3916    10.1005     6.7780 H       
  45 H45            6.6357    11.3688     6.8867 H       
  46 H46           12.8889     7.5776    12.6066 H       
  47 H47           15.4390     6.8630    11.6252 H       
  48 H48           15.4225     8.6186    11.9181 H       
  49 H49           14.7036     8.2215    14.2578 H       
  50 H50           14.7201     6.4659    13.9649 H       
  51 H51           17.1396     6.5774    13.4332 H       
  52 H52           17.1230     8.3330    13.7261 H       
  53 H53           16.8150     7.2041    15.0673 H       
@<TRIPOS>BOND
   1    1    2 1
   2    3   19 2
   3    4    7 1
   4    4    8 1
   5    4   15 1
   6    5   11 1
   7    5   19 am
   8    5   39 1
   9    6   19 am
  10    6   20 1
  11    6   46 1
  12    7    9 1
  13    7   12 1
  14    7   23 1
  15    8   10 1
  16    8   13 1
  17    8   24 1
  18    9   11 1
  19    9   25 1
  20    9   26 1
  21   10   11 1
  22   10   27 1
  23   10   28 1
  24   11   29 1
  25   12   14 1
  26   12   30 1
  27   12   31 1
  28   13   14 1
  29   13   32 1
  30   13   33 1
  31   14   34 1
  32   14   35 1
  33   15   16 1
  34   15   36 1
  35   15   37 1
  36   16   17 1
  37   16   18 1
  38   16   38 1
  39   17   40 1
  40   17   41 1
  41   17   42 1
  42   18   43 1
  43   18   44 1
  44   18   45 1
  45   20   21 1
  46   20   47 1
  47   20   48 1
  48   21   22 1
  49   21   49 1
  50   21   50 1
  51   22   51 1
  52   22   52 1
  53   22   53 1

#	End of record

#	Name: 11958727
#	Creating user name:	landrgr1
#	Creation time:	28. 01. 2015 13:52

#	Modifying user name:	landrgr1
#	Modification time:	28. 01. 2015 13:52

#	Program:	corina 3.48 0006  22.01.2010

@<TRIPOS>MOLECULE
11958727
  49   51    0    0    0
SMALL
NO_CHARGES


@<TRIPOS>ATOM
   1 I1             0.0000     0.0000     0.0000 I       
   2 S2             9.7247     9.7583     6.9713 S.3     
   3 N3             9.5731    14.1939     7.4676 N.ar    
   4 N4            12.1857    10.1169     7.3537 N.pl3   
   5 C5             8.4256    14.8287     7.6890 C.ar    
   6 C6             9.6598    12.8673     7.5859 C.ar    
   7 C7             7.2240    14.0591     7.6328 C.ar    
   8 C8            11.0549    10.8812     7.2978 C.2     
   9 C9            10.7772    14.8727     6.9767 C.3     
  10 C10           10.9682    12.2292     7.4594 C.2     
  11 C11           12.0556     8.7531     7.1600 C.ar    
  12 C12            8.2818    16.1795     8.0325 C.ar    
  13 C13            8.5135    12.0682     7.7745 C.ar    
  14 C14           13.4949    10.7222     7.6101 C.3     
  15 C15            7.2891    12.6563     7.7666 C.ar    
  16 C16           10.7510     8.3182     6.9257 C.ar    
  17 C17            5.9984    14.7054     7.4285 C.ar    
  18 C18            7.0668    16.7899     7.8719 C.ar    
  19 C19           10.8667    14.7170     5.4573 C.3     
  20 C20           13.0705     7.7841     7.1737 C.ar    
  21 C21            9.3837    16.9974     8.6570 C.3     
  22 C22            5.9332    16.0634     7.5308 C.ar    
  23 C23           10.4624     6.9813     6.7135 C.ar    
  24 C24           13.7576    10.7500     9.1171 C.3     
  25 C25           12.7790     6.4562     6.9618 C.ar    
  26 C26           11.4783     6.0446     6.7310 C.ar    
  27 H27           10.7267    15.9313     7.2312 H       
  28 H28           11.6586    14.4292     7.4400 H       
  29 H29           11.8665    12.8278     7.4942 H       
  30 H30            8.6060    11.0039     7.9240 H       
  31 H31           14.2696    10.1349     7.1170 H       
  32 H32           13.5073    11.7400     7.2203 H       
  33 H33            6.3909    12.0642     7.8603 H       
  34 H34            5.1132    14.1344     7.1919 H       
  35 H35            6.9961    17.8582     8.0147 H       
  36 H36           11.7112    15.2950     5.0820 H       
  37 H37           11.0066    13.6653     5.2074 H       
  38 H38            9.9462    15.0798     5.0000 H       
  39 H39           14.0925     8.0842     7.3520 H       
  40 H40            9.9202    17.5393     7.8781 H       
  41 H41            8.9535    17.7077     9.3632 H       
  42 H42           10.0741    16.3367     9.1814 H       
  43 H43            5.0000    16.5721     7.3471 H       
  44 H44            9.4438     6.6703     6.5346 H       
  45 H45           14.7317    11.2003     9.3079 H       
  46 H46           12.9830    11.3372     9.6102 H       
  47 H47           13.7453     9.7321     9.5069 H       
  48 H48           13.5750     5.7264     6.9759 H       
  49 H49           11.2588     5.0000     6.5664 H       
@<TRIPOS>BOND
   1    2    8 1
   2    2   16 1
   3    3    5 ar
   4    3    6 ar
   5    3    9 1
   6    4    8 1
   7    4   11 1
   8    4   14 1
   9    5    7 ar
  10    5   12 ar
  11    6   10 1
  12    6   13 ar
  13    7   15 ar
  14    7   17 ar
  15    8   10 2
  16    9   19 1
  17    9   27 1
  18    9   28 1
  19   10   29 1
  20   11   16 ar
  21   11   20 ar
  22   12   18 ar
  23   12   21 1
  24   13   15 ar
  25   13   30 1
  26   14   24 1
  27   14   31 1
  28   14   32 1
  29   15   33 1
  30   16   23 ar
  31   17   22 ar
  32   17   34 1
  33   18   22 ar
  34   18   35 1
  35   19   36 1
  36   19   37 1
  37   19   38 1
  38   20   25 ar
  39   20   39 1
  40   21   40 1
  41   21   41 1
  42   21   42 1
  43   22   43 1
  44   23   26 ar
  45   23   44 1
  46   24   45 1
  47   24   46 1
  48   24   47 1
  49   25   26 ar
  50   25   48 1
  51   26   49 1

#	End of record

#	Name: 11958633
#	Creating user name:	landrgr1
#	Creation time:	28. 01. 2015 13:52

#	Modifying user name:	landrgr1
#	Modification time:	28. 01. 2015 13:52

#	Program:	corina 3.48 0006  22.01.2010

@<TRIPOS>MOLECULE
11958633
  67   71    0    0    0
SMALL
NO_CHARGES


@<TRIPOS>ATOM
   1 O1            -0.0171     1.4099     0.0098 O.3     
   2 O2             2.6246     3.1178    -1.5400 O.2     
   3 O3             1.5956    -6.8973     0.4626 O.2     
   4 O4             3.5497    -6.4015     1.0841 O.2     
   5 N5             1.6675     2.3792     2.3384 N.3     
   6 N6             0.0021    -0.0041     0.0020 N.2     
   7 N7             1.4616     1.4556    -2.4380 N.am    
   8 N8             2.4351    -6.0575     0.7334 N.pl3   
   9 C9             1.3493     1.8630    -0.0008 C.3     
  10 C10            2.0816     0.6604     0.6637 C.3     
  11 C11            1.5229     3.0040     1.0145 C.3     
  12 C12            2.0240     0.9633     2.1696 C.3     
  13 C13            1.1420    -0.4921     0.3594 C.2     
  14 C14            1.8582     2.1914    -1.3808 C.2     
  15 C15            2.6733     3.0827     3.1455 C.3     
  16 C16            1.4755    -1.9271     0.4558 C.ar    
  17 C17            2.6213     2.5781     4.5645 C.ar    
  18 C18            1.9563     1.7748    -3.7795 C.3     
  19 C19            0.5156    -2.8924     0.1458 C.ar    
  20 C20            2.7538    -2.3249     0.8520 C.ar    
  21 C21            1.3571     0.7951    -4.7905 C.3     
  22 C22            3.4036     1.5039     4.9453 C.ar    
  23 C23            1.7954     3.1930     5.4869 C.ar    
  24 C24            0.8340    -4.2315     0.2376 C.ar    
  25 C25            3.0587    -3.6675     0.9395 C.ar    
  26 C26            1.8738     1.1285    -6.1915 C.3     
  27 C27            2.1010    -4.6189     0.6363 C.ar    
  28 C28            3.3558     1.0410     6.2469 C.ar    
  29 C29            1.7476     2.7302     6.7886 C.ar    
  30 C30            1.2747     0.1488    -7.2025 C.3     
  31 C31            2.5260     1.6526     7.1680 C.ar    
  32 C32            1.7835     0.4771    -8.5825 C.ar    
  33 C33            2.9443    -0.1109    -9.0492 C.ar    
  34 C34            1.0866     1.3620    -9.3838 C.ar    
  35 C35            3.4111     0.1903   -10.3150 C.ar    
  36 C36            1.5533     1.6632   -10.6496 C.ar    
  37 C37            2.7169     1.0792   -11.1143 C.ar    
  38 H38            3.0964     0.5123     0.2943 H       
  39 H39            0.6456     3.6507     1.0016 H       
  40 H40            2.4157     3.5821     0.7759 H       
  41 H41            2.9976     0.7725     2.6211 H       
  42 H42            1.2696     0.3348     2.6429 H       
  43 H43            3.6647     2.8997     2.7309 H       
  44 H44            2.4660     4.1527     3.1325 H       
  45 H45            0.8486     0.7147    -2.3107 H       
  46 H46            1.6643     2.7916    -4.0420 H       
  47 H47            3.0431     1.6934    -3.7949 H       
  48 H48           -0.4740    -2.5914    -0.1649 H       
  49 H49            3.5022    -1.5833     1.0889 H       
  50 H50            1.6491    -0.2217    -4.5280 H       
  51 H51            0.2703     0.8765    -4.7752 H       
  52 H52            4.0519     1.0261     4.2257 H       
  53 H53            1.1878     4.0353     5.1906 H       
  54 H54            0.0925    -4.9793    -0.0020 H       
  55 H55            4.0472    -3.9766     1.2458 H       
  56 H56            1.5818     2.1453    -6.4540 H       
  57 H57            2.9606     1.0471    -6.2069 H       
  58 H58            3.9665     0.2014     6.5442 H       
  59 H59            1.1027     3.2108     7.5093 H       
  60 H60            1.5666    -0.8681    -6.9401 H       
  61 H61            0.1878     0.2302    -7.1872 H       
  62 H62            2.4884     1.2908     8.1849 H       
  63 H63            3.4866    -0.8054    -8.4247 H       
  64 H64            0.1771     1.8178    -9.0210 H       
  65 H65            4.3183    -0.2686   -10.6793 H       
  66 H66            1.0086     2.3543   -11.2757 H       
  67 H67            3.0818     1.3148   -12.1031 H       
@<TRIPOS>BOND
   1    1    6 1
   2    1    9 1
   3    2   14 2
   4    3    8 2
   5    4    8 2
   6    5   11 1
   7    5   12 1
   8    5   15 1
   9    6   13 2
  10    7   14 am
  11    7   18 1
  12    7   45 1
  13    8   27 1
  14    9   10 1
  15    9   11 1
  16    9   14 1
  17   10   12 1
  18   10   13 1
  19   10   38 1
  20   11   39 1
  21   11   40 1
  22   12   41 1
  23   12   42 1
  24   13   16 1
  25   15   17 1
  26   15   43 1
  27   15   44 1
  28   16   19 ar
  29   16   20 ar
  30   17   22 ar
  31   17   23 ar
  32   18   21 1
  33   18   46 1
  34   18   47 1
  35   19   24 ar
  36   19   48 1
  37   20   25 ar
  38   20   49 1
  39   21   26 1
  40   21   50 1
  41   21   51 1
  42   22   28 ar
  43   22   52 1
  44   23   29 ar
  45   23   53 1
  46   24   27 ar
  47   24   54 1
  48   25   27 ar
  49   25   55 1
  50   26   30 1
  51   26   56 1
  52   26   57 1
  53   28   31 ar
  54   28   58 1
  55   29   31 ar
  56   29   59 1
  57   30   32 1
  58   30   60 1
  59   30   61 1
  60   31   62 1
  61   32   33 ar
  62   32   34 ar
  63   33   35 ar
  64   33   63 1
  65   34   36 ar
  66   34   64 1
  67   35   37 ar
  68   35   65 1
  69   36   37 ar
  70   36   66 1
  71   37   67 1

#	End of record

#	Name: 11958621
#	Creating user name:	landrgr1
#	Creation time:	28. 01. 2015 13:52

#	Modifying user name:	landrgr1
#	Modification time:	28. 01. 2015 13:52

#	Program:	corina 3.48 0006  22.01.2010

@<TRIPOS>MOLECULE
11958621
  54   56    0    0    0
SMALL
NO_CHARGES


@<TRIPOS>ATOM
   1 Cl1            5.5756     8.6997    -2.4025 Cl      
   2 S2             0.0655     1.6553     0.6982 S.3     
   3 S3             3.4088     5.3346     0.2126 S.3     
   4 O4             0.3108    -2.7505     0.8086 O.2     
   5 N5            -0.9725    -0.9427     0.8938 N.am    
   6 N6             1.3584    -0.4950     0.6221 N.2     
   7 N7             5.9478     4.1799    -0.0322 N.pl3   
   8 N8             3.9635     2.8853     0.2275 N.2     
   9 C9            -2.7356    -5.5691     1.2329 C.3     
  10 C10           -1.5263    -4.6459     1.0705 C.3     
  11 C11           -2.2692    -7.0263     1.2268 C.3     
  12 C12           -1.9927    -3.1887     1.0766 C.3     
  13 C13           -3.4784    -7.9494     1.3891 C.3     
  14 C14           -0.8016    -2.2794     0.9167 C.2     
  15 C15           -3.0121    -9.4066     1.3831 C.3     
  16 C16            0.1257    -0.1044     0.7464 C.2     
  17 C17            1.8164     1.7071     0.5026 C.2     
  18 C18            2.2744     0.4404     0.4914 C.2     
  19 C19            2.6395     2.9289     0.3728 C.2     
  20 C20            6.4839     5.4511    -0.2554 C.ar    
  21 C21            7.6622     5.8300     0.3751 C.ar    
  22 C22            4.5795     4.0224     0.1238 C.2     
  23 C23            3.7383     0.1163     0.3398 C.3     
  24 C24            2.1047     4.1638     0.3935 C.2     
  25 C25            5.8425     6.3362    -1.1127 C.ar    
  26 C26            8.1899     7.0870     0.1528 C.ar    
  27 C27            8.3641     4.8706     1.3014 C.3     
  28 C28            6.3755     7.5924    -1.3311 C.ar    
  29 C29            7.5469     7.9684    -0.6964 C.ar    
  30 H30           -3.2348    -5.3513     2.1770 H       
  31 H31           -3.4300    -5.4065     0.4086 H       
  32 H32           -0.8318    -4.8085     1.8947 H       
  33 H33           -1.0271    -4.8637     0.1264 H       
  34 H34           -1.7699    -7.2441     0.2827 H       
  35 H35           -1.5747    -7.1889     2.0510 H       
  36 H36           -2.6872    -3.0261     0.2523 H       
  37 H37           -2.4919    -2.9709     2.0207 H       
  38 H38           -3.9777    -7.7316     2.3333 H       
  39 H39           -4.1729    -7.7868     0.5649 H       
  40 H40           -2.5128    -9.6244     0.4390 H       
  41 H41           -2.3176    -9.5693     2.2073 H       
  42 H42           -3.8736   -10.0643     1.4988 H       
  43 H43           -1.8621    -0.5660     0.9803 H       
  44 H44            6.5333     3.4078     0.0135 H       
  45 H45            3.9785     0.0064    -0.7177 H       
  46 H46            4.3350     0.9227     0.7661 H       
  47 H47            3.9602    -0.8147     0.8614 H       
  48 H48            1.0558     4.3972     0.5027 H       
  49 H49            4.9288     6.0429    -1.6082 H       
  50 H50            9.1059     7.3819     0.6432 H       
  51 H51            9.0753     4.2713     0.7329 H       
  52 H52            8.8947     5.4311     2.0710 H       
  53 H53            7.6299     4.2154     1.7701 H       
  54 H54            7.9615     8.9507    -0.8681 H       
@<TRIPOS>BOND
   1    1   28 1
   2    2   16 1
   3    2   17 1
   4    3   22 1
   5    3   24 1
   6    4   14 2
   7    5   14 am
   8    5   16 1
   9    5   43 1
  10    6   16 2
  11    6   18 1
  12    7   20 1
  13    7   22 1
  14    7   44 1
  15    8   19 1
  16    8   22 2
  17    9   10 1
  18    9   11 1
  19    9   30 1
  20    9   31 1
  21   10   12 1
  22   10   32 1
  23   10   33 1
  24   11   13 1
  25   11   34 1
  26   11   35 1
  27   12   14 1
  28   12   36 1
  29   12   37 1
  30   13   15 1
  31   13   38 1
  32   13   39 1
  33   15   40 1
  34   15   41 1
  35   15   42 1
  36   17   18 2
  37   17   19 1
  38   18   23 1
  39   19   24 2
  40   20   21 ar
  41   20   25 ar
  42   21   26 ar
  43   21   27 1
  44   23   45 1
  45   23   46 1
  46   23   47 1
  47   24   48 1
  48   25   28 ar
  49   25   49 1
  50   26   29 ar
  51   26   50 1
  52   27   51 1
  53   27   52 1
  54   27   53 1
  55   28   29 ar
  56   29   54 1

#	End of record

#	Name: 11958584
#	Creating user name:	landrgr1
#	Creation time:	28. 01. 2015 13:52

#	Modifying user name:	landrgr1
#	Modification time:	28. 01. 2015 13:52

#	Program:	corina 3.48 0006  22.01.2010

@<TRIPOS>MOLECULE
11958584
  45   46    0    0    0
SMALL
NO_CHARGES


@<TRIPOS>ATOM
   1 S1            -0.0225     1.8097     0.0120 S.3     
   2 O2            -3.2476    -1.1956    -0.7180 O.3     
   3 O3            -7.5537    -4.0869    -0.3536 O.3     
   4 O4            -4.6083    -1.7261     2.5631 O.2     
   5 O5            -1.2608    -1.7435     3.2233 O.3     
   6 O6            -2.0440     0.3330     3.1789 O.2     
   7 N7            -5.7022    -2.1125     0.6696 N.am    
   8 N8            -2.1519    -0.7891    -1.0219 N.2     
   9 C9            -1.4117    -0.5257     0.0127 C.2     
  10 C10            0.0021    -0.0041     0.0020 C.3     
  11 C11           -2.2013    -0.8271     1.1592 C.2     
  12 C12            1.6887     2.2294    -0.0021 C.ar    
  13 C13           -3.4048    -1.2657     0.6132 C.2     
  14 C14            3.9917     1.5600    -0.0220 C.ar    
  15 C15            3.4208     3.8884    -0.0098 C.ar    
  16 C16            2.0788     3.5633     0.0013 C.ar    
  17 C17            2.6516     1.2274    -0.0109 C.ar    
  18 C18            4.3762     2.8885    -0.0243 C.ar    
  19 C19           -6.8932    -2.5576     1.3973 C.3     
  20 C20           -4.6074    -1.7152     1.3479 C.2     
  21 C21           -7.9837    -2.9506     0.3987 C.3     
  22 C22            5.0366     0.4742    -0.0311 C.3     
  23 C23            3.8448     5.3345    -0.0060 C.3     
  24 C24           -1.8323    -0.7046     2.5837 C.2     
  25 C25           -8.5046    -4.5377    -1.3204 C.3     
  26 H26            0.5123    -0.3556    -0.8948 H       
  27 H27            0.5293    -0.3651     0.8851 H       
  28 H28            1.3333     4.3446     0.0123 H       
  29 H29            2.3521     0.1897    -0.0088 H       
  30 H30            5.4251     3.1458    -0.0326 H       
  31 H31           -6.6402    -3.4183     2.0164 H       
  32 H32           -7.2555    -1.7482     2.0310 H       
  33 H33           -5.7015    -2.1037    -0.3003 H       
  34 H34           -8.1739    -2.1176    -0.2781 H       
  35 H35           -8.8985    -3.1969     0.9378 H       
  36 H36            5.2800     0.2127    -1.0609 H       
  37 H37            5.9341     0.8293     0.4754 H       
  38 H38            4.6516    -0.4049     0.4857 H       
  39 H39            3.9569     5.6776     1.0224 H       
  40 H40            4.7961     5.4355    -0.5285 H       
  41 H41            3.0881     5.9363    -0.5094 H       
  42 H42           -9.4301    -4.8169    -0.8169 H       
  43 H43           -8.7056    -3.7376    -2.0328 H       
  44 H44           -8.1034    -5.4025    -1.8488 H       
  45 H45           -1.0370    -1.6158     4.1554 H       
@<TRIPOS>BOND
   1    1   10 1
   2    1   12 1
   3    2    8 1
   4    2   13 1
   5    3   21 1
   6    3   25 1
   7    4   20 2
   8    5   24 1
   9    5   45 1
  10    6   24 2
  11    7   19 1
  12    7   20 am
  13    7   33 1
  14    8    9 2
  15    9   10 1
  16    9   11 1
  17   10   26 1
  18   10   27 1
  19   11   13 2
  20   11   24 1
  21   12   16 ar
  22   12   17 ar
  23   13   20 1
  24   14   17 ar
  25   14   18 ar
  26   14   22 1
  27   15   16 ar
  28   15   18 ar
  29   15   23 1
  30   16   28 1
  31   17   29 1
  32   18   30 1
  33   19   21 1
  34   19   31 1
  35   19   32 1
  36   21   34 1
  37   21   35 1
  38   22   36 1
  39   22   37 1
  40   22   38 1
  41   23   39 1
  42   23   40 1
  43   23   41 1
  44   25   42 1
  45   25   43 1
  46   25   44 1

#	End of record

#	Name: 11958565
#	Creating user name:	landrgr1
#	Creation time:	28. 01. 2015 13:52

#	Modifying user name:	landrgr1
#	Modification time:	28. 01. 2015 13:52

#	Program:	corina 3.48 0006  22.01.2010

@<TRIPOS>MOLECULE
11958565
  43   45    0    0    0
SMALL
NO_CHARGES


@<TRIPOS>ATOM
   1 O1            -0.1596     1.3896    -0.4494 O.3     
   2 O2             0.5853     3.4978    -1.8665 O.2     
   3 O3             5.1945     3.7939    -2.9888 O.3     
   4 O4            -1.1014    -1.6105     0.8584 O.2     
   5 O5            -1.8421    -3.0600    -0.4836 O.2     
   6 N6             2.6236     3.7370    -1.0238 N.am    
   7 N7            -0.1182    -0.0229    -0.4019 N.2     
   8 N8            -0.9016    -2.4995     0.0501 N.pl3   
   9 C9             1.1870     1.8716    -0.2655 C.3     
  10 C10            2.0230     0.6689    -0.7644 C.3     
  11 C11            1.0703    -0.4961    -0.5747 C.2     
  12 C12            1.4425     3.0935    -1.1097 C.2     
  13 C13            1.4390    -1.9257    -0.5859 C.ar    
  14 C14            2.8721     4.9248    -1.8445 C.3     
  15 C15            0.4841    -2.8986    -0.2837 C.ar    
  16 C16            4.2559     5.4503    -1.5618 C.ar    
  17 C17            2.7423    -2.3112    -0.9043 C.ar    
  18 C18            5.3597     4.8533    -2.1538 C.ar    
  19 C19            0.8352    -4.2325    -0.2964 C.ar    
  20 C20            4.4260     6.5302    -0.7176 C.ar    
  21 C21            3.0800    -3.6489    -0.9133 C.ar    
  22 C22            2.1303    -4.6073    -0.6078 C.ar    
  23 C23            6.6321     5.3393    -1.8915 C.ar    
  24 C24            5.6956     7.0128    -0.4577 C.ar    
  25 C25            6.7975     6.4162    -1.0418 C.ar    
  26 C26            6.3754     3.2296    -3.5623 C.3     
  27 H27            1.3877     2.0769     0.7860 H       
  28 H28            2.2835     0.7885    -1.8160 H       
  29 H29            2.9177     0.5403    -0.1552 H       
  30 H30            2.7920     4.6610    -2.8991 H       
  31 H31            2.1360     5.6923    -1.6051 H       
  32 H32            3.3092     3.4136    -0.4185 H       
  33 H33            3.4846    -1.5640    -1.1434 H       
  34 H34            0.0977    -4.9860    -0.0625 H       
  35 H35            3.5668     6.9982    -0.2604 H       
  36 H36            4.0879    -3.9485    -1.1598 H       
  37 H37            2.4000    -5.6530    -0.6160 H       
  38 H38            7.4929     4.8761    -2.3507 H       
  39 H39            5.8265     7.8575     0.2024 H       
  40 H40            7.7880     6.7947    -0.8369 H       
  41 H41            6.8920     3.9882    -4.1503 H       
  42 H42            7.0323     2.8763    -2.7674 H       
  43 H43            6.1028     2.3938    -4.2067 H       
@<TRIPOS>BOND
   1    1    7 1
   2    1    9 1
   3    2   12 2
   4    3   18 1
   5    3   26 1
   6    4    8 2
   7    5    8 2
   8    6   12 am
   9    6   14 1
  10    6   32 1
  11    7   11 2
  12    8   15 1
  13    9   10 1
  14    9   12 1
  15    9   27 1
  16   10   11 1
  17   10   28 1
  18   10   29 1
  19   11   13 1
  20   13   15 ar
  21   13   17 ar
  22   14   16 1
  23   14   30 1
  24   14   31 1
  25   15   19 ar
  26   16   18 ar
  27   16   20 ar
  28   17   21 ar
  29   17   33 1
  30   18   23 ar
  31   19   22 ar
  32   19   34 1
  33   20   24 ar
  34   20   35 1
  35   21   22 ar
  36   21   36 1
  37   22   37 1
  38   23   25 ar
  39   23   38 1
  40   24   25 ar
  41   24   39 1
  42   25   40 1
  43   26   41 1
  44   26   42 1
  45   26   43 1

#	End of record

#	Name: 11958533
#	Creating user name:	landrgr1
#	Creation time:	28. 01. 2015 13:52

#	Modifying user name:	landrgr1
#	Modification time:	28. 01. 2015 13:52

#	Program:	corina 3.48 0006  22.01.2010

@<TRIPOS>MOLECULE
11958533
  41   42    0    0    0
SMALL
NO_CHARGES


@<TRIPOS>ATOM
   1 O1            -0.0171     1.4097     0.0098 O.3     
   2 O2             0.5435     3.5574    -1.4328 O.2     
   3 O3            -1.2948    -4.9238     0.3897 O.2     
   4 O4             0.0980    -6.4400    -0.0707 O.2     
   5 N5             2.6919     3.7345    -0.9084 N.am    
   6 N6             0.0021    -0.0041     0.0020 N.2     
   7 N7            -0.1812    -5.2584     0.0273 N.pl3   
   8 C8             4.4278     6.7165    -2.4769 C.3     
   9 C9             4.2782     5.4492    -1.6328 C.3     
  10 C10            1.3514     1.8642    -0.0008 C.3     
  11 C11            2.8351     4.9479    -1.7167 C.3     
  12 C12            2.0754     0.6684    -0.6641 C.3     
  13 C13            1.4987     3.1125    -0.8322 C.2     
  14 C14            1.1396    -0.4884    -0.3690 C.2     
  15 C15            5.8354     7.2876    -2.2944 C.3     
  16 C16            4.2025     6.3767    -3.9515 C.3     
  17 C17            1.4728    -1.9220    -0.4856 C.ar    
  18 C18            0.5151    -2.8913    -0.1823 C.ar    
  19 C19            2.7454    -2.3144    -0.9054 C.ar    
  20 C20            0.8330    -4.2293    -0.2939 C.ar    
  21 C21            3.0498    -3.6554    -1.0127 C.ar    
  22 C22            2.0975    -4.6111    -0.7049 C.ar    
  23 H23            3.6920     7.4547    -2.1576 H       
  24 H24            4.9525     4.6801    -2.0094 H       
  25 H25            4.5255     5.6727    -0.5950 H       
  26 H26            1.7162     2.0274     1.0133 H       
  27 H27            2.5879     4.7245    -2.7545 H       
  28 H28            2.1609     5.7171    -1.3400 H       
  29 H29            2.1729     0.8227    -1.7387 H       
  30 H30            3.0506     0.5038    -0.2057 H       
  31 H31            3.4559     3.3787    -0.4282 H       
  32 H32            6.5712     6.5495    -2.6137 H       
  33 H33            5.9420     8.1905    -2.8958 H       
  34 H34            5.9960     7.5298    -1.2438 H       
  35 H35            3.1997     5.9698    -4.0815 H       
  36 H36            4.3090     7.2795    -4.5529 H       
  37 H37            4.9383     5.6385    -4.2708 H       
  38 H38           -0.4723    -2.5945     0.1393 H       
  39 H39            3.4895    -1.5695    -1.1459 H       
  40 H40            4.0336    -3.9602    -1.3376 H       
  41 H41            2.3413    -5.6597    -0.7899 H       
@<TRIPOS>BOND
   1    1    6 1
   2    1   10 1
   3    2   13 2
   4    3    7 2
   5    4    7 2
   6    5   11 1
   7    5   13 am
   8    5   31 1
   9    6   14 2
  10    7   20 1
  11    8    9 1
  12    8   15 1
  13    8   16 1
  14    8   23 1
  15    9   11 1
  16    9   24 1
  17    9   25 1
  18   10   12 1
  19   10   13 1
  20   10   26 1
  21   11   27 1
  22   11   28 1
  23   12   14 1
  24   12   29 1
  25   12   30 1
  26   14   17 1
  27   15   32 1
  28   15   33 1
  29   15   34 1
  30   16   35 1
  31   16   36 1
  32   16   37 1
  33   17   18 ar
  34   17   19 ar
  35   18   20 ar
  36   18   38 1
  37   19   21 ar
  38   19   39 1
  39   20   22 ar
  40   21   22 ar
  41   21   40 1
  42   22   41 1

#	End of record

#	Name: 11958513
#	Creating user name:	landrgr1
#	Creation time:	28. 01. 2015 13:52

#	Modifying user name:	landrgr1
#	Modification time:	28. 01. 2015 13:52

#	Program:	corina 3.48 0006  22.01.2010

@<TRIPOS>MOLECULE
11958513
  55   57    0    0    0
SMALL
NO_CHARGES


@<TRIPOS>ATOM
   1 S1            -0.0225     1.8097     0.0120 S.3     
   2 O2            -3.2471    -1.1970    -0.7180 O.3     
   3 O3            -1.2605    -1.7414     3.2241 O.3     
   4 O4            -4.6078    -1.7274     2.5631 O.2     
   5 O5           -10.9052    -4.0139    -2.2780 O.3     
   6 O6            -2.0455     0.3343     3.1782 O.2     
   7 N7            -5.7010    -2.1156     0.6696 N.am    
   8 N8            -2.1516    -0.7899    -1.0219 N.2     
   9 C9            -1.4117    -0.5257     0.0127 C.2     
  10 C10           -2.2013    -0.8271     1.1592 C.2     
  11 C11            0.0021    -0.0041     0.0020 C.3     
  12 C12            3.4209     3.8883    -0.0093 C.ar    
  13 C13           -6.8918    -2.5615     1.3972 C.3     
  14 C14           -3.4045    -1.2666     0.6132 C.2     
  15 C15            4.3762     2.8886    -0.0233 C.ar    
  16 C16            1.6887     2.2294    -0.0021 C.ar    
  17 C17           -7.9654    -2.9501     0.4136 C.ar    
  18 C18            2.0788     3.5631     0.0013 C.ar    
  19 C19           -4.6068    -1.7169     1.3479 C.2     
  20 C20            3.9916     1.5598    -0.0268 C.ar    
  21 C21            2.6517     1.2272    -0.0162 C.ar    
  22 C22            3.8450     5.3343     0.0007 C.3     
  23 C23           -8.0419    -4.2518    -0.0461 C.ar    
  24 C24           -8.8758    -2.0055    -0.0232 C.ar    
  25 C25            5.8397     3.2475    -0.0354 C.3     
  26 C26           -1.8327    -0.7034     2.5837 C.2     
  27 C27           -9.0254    -4.6106    -0.9475 C.ar    
  28 C28           -9.8612    -2.3592    -0.9244 C.ar    
  29 C29           -9.9368    -3.6635    -1.3913 C.ar    
  30 C30           -0.9249    -1.5487     4.6235 C.3     
  31 C31          -11.8089    -2.9870    -2.6912 C.3     
  32 H32            0.5123    -0.3556    -0.8948 H       
  33 H33            0.5293    -0.3651     0.8851 H       
  34 H34           -6.6381    -3.4217     2.0167 H       
  35 H35           -7.2549    -1.7521     2.0306 H       
  36 H36            1.3332     4.3444     0.0127 H       
  37 H37           -5.7002    -2.1073    -0.3004 H       
  38 H38            4.7404     0.7817    -0.0381 H       
  39 H39            2.3522     0.1896    -0.0189 H       
  40 H40            3.9413     5.6918    -1.0245 H       
  41 H41            3.0962     5.9290     0.5240 H       
  42 H42            4.8042     5.4282     0.5098 H       
  43 H43           -7.3319    -4.9886     0.2994 H       
  44 H44           -8.8167    -0.9904     0.3409 H       
  45 H45            6.2024     3.3289     0.9892 H       
  46 H46            6.3997     2.4723    -0.5585 H       
  47 H47            5.9758     4.2010    -0.5458 H       
  48 H48           -9.0845    -5.6274    -1.3066 H       
  49 H49          -10.5722    -1.6212    -1.2651 H       
  50 H50           -1.8301    -1.3205     5.1862 H       
  51 H51           -0.4720    -2.4586     5.0173 H       
  52 H52           -0.2205    -0.7221     4.7177 H       
  53 H53          -12.5294    -3.3996    -3.3974 H       
  54 H54          -12.3361    -2.5953    -1.8213 H       
  55 H55          -11.2505    -2.1827    -3.1701 H       
@<TRIPOS>BOND
   1    1   11 1
   2    1   16 1
   3    2    8 1
   4    2   14 1
   5    3   26 1
   6    3   30 1
   7    4   19 2
   8    5   29 1
   9    5   31 1
  10    6   26 2
  11    7   13 1
  12    7   19 am
  13    7   37 1
  14    8    9 2
  15    9   10 1
  16    9   11 1
  17   10   14 2
  18   10   26 1
  19   11   32 1
  20   11   33 1
  21   12   15 ar
  22   12   18 ar
  23   12   22 1
  24   13   17 1
  25   13   34 1
  26   13   35 1
  27   14   19 1
  28   15   20 ar
  29   15   25 1
  30   16   18 ar
  31   16   21 ar
  32   17   23 ar
  33   17   24 ar
  34   18   36 1
  35   20   21 ar
  36   20   38 1
  37   21   39 1
  38   22   40 1
  39   22   41 1
  40   22   42 1
  41   23   27 ar
  42   23   43 1
  43   24   28 ar
  44   24   44 1
  45   25   45 1
  46   25   46 1
  47   25   47 1
  48   27   29 ar
  49   27   48 1
  50   28   29 ar
  51   28   49 1
  52   30   50 1
  53   30   51 1
  54   30   52 1
  55   31   53 1
  56   31   54 1
  57   31   55 1

#	End of record

#	Name: 11958480
#	Creating user name:	landrgr1
#	Creation time:	28. 01. 2015 13:52

#	Modifying user name:	landrgr1
#	Modification time:	28. 01. 2015 13:52

#	Program:	corina 3.48 0006  22.01.2010

@<TRIPOS>MOLECULE
11958480
  53   55    0    0    0
SMALL
NO_CHARGES


@<TRIPOS>ATOM
   1 S1             0.1102     1.4649    -0.2745 S.3     
   2 S2             3.3817     5.2373    -0.4022 S.3     
   3 O3             0.4470    -2.9027     0.2683 O.2     
   4 O4             8.4526     4.7575    -1.0780 O.3     
   5 O5             5.4861     8.7951     1.1744 O.3     
   6 N6            -0.8754    -1.1523    -0.0631 N.am    
   7 N7             1.4492    -0.6254     0.0982 N.2     
   8 N8             5.9475     4.1800    -0.0319 N.pl3   
   9 N9             3.9879     2.8240    -0.0621 N.2     
  10 C10           -1.3532    -4.8501     0.3233 C.3     
  11 C11           -1.8503    -3.4192     0.1084 C.3     
  12 C12           -2.5517    -5.7933     0.4458 C.3     
  13 C13           -0.4900    -5.2742    -0.8665 C.3     
  14 C14           -0.6766    -2.4740     0.1105 C.2     
  15 C15            0.2068    -0.2809    -0.0612 C.2     
  16 C16            1.8622     1.5780    -0.1198 C.2     
  17 C17            2.3471     0.3360     0.0719 C.2     
  18 C18            2.6612     2.8206    -0.1889 C.2     
  19 C19            6.4587     5.4825     0.0120 C.ar    
  20 C20            4.5811     3.9752    -0.1397 C.2     
  21 C21            3.8195     0.0657     0.2451 C.3     
  22 C22            2.1002     4.0283    -0.3838 C.2     
  23 C23            7.7178     5.7563    -0.5176 C.ar    
  24 C24            5.7101     6.5042     0.5779 C.ar    
  25 C25            6.2191     7.7930     0.6199 C.ar    
  26 C26            8.2212     7.0456    -0.4728 C.ar    
  27 C27            7.4754     8.0612     0.0964 C.ar    
  28 C28            9.7347     5.1104    -1.6012 C.3     
  29 C29            6.0719    10.0985     1.1841 C.3     
  30 H30           -0.7603    -4.8954     1.2368 H       
  31 H31           -2.3675    -3.3541    -0.8489 H       
  32 H32           -2.5363    -3.1484     0.9111 H       
  33 H33           -3.1446    -5.7480    -0.4677 H       
  34 H34           -2.1975    -6.8128     0.5989 H       
  35 H35           -3.1667    -5.4912     1.2935 H       
  36 H36           -0.1358    -6.2937    -0.7134 H       
  37 H37           -1.0829    -5.2289    -1.7801 H       
  38 H38            0.3638    -4.6023    -0.9538 H       
  39 H39           -1.7739    -0.8095    -0.1893 H       
  40 H40            6.5496     3.4209     0.0131 H       
  41 H41            4.2723    -0.1181    -0.7292 H       
  42 H42            4.2952     0.9293     0.7098 H       
  43 H43            3.9560    -0.8097     0.8801 H       
  44 H44            1.0451     4.2231    -0.5074 H       
  45 H45            4.7316     6.2959     0.9849 H       
  46 H46            9.1973     7.2581    -0.8833 H       
  47 H47            7.8699     9.0660     0.1299 H       
  48 H48           10.2138     4.2243    -2.0175 H       
  49 H49            9.6142     5.8597    -2.3835 H       
  50 H50           10.3542     5.5165    -0.8015 H       
  51 H51            5.3844    10.8023     1.6533 H       
  52 H52            7.0055    10.0731     1.7460 H       
  53 H53            6.2725    10.4143     0.1603 H       
@<TRIPOS>BOND
   1    1   15 1
   2    1   16 1
   3    2   20 1
   4    2   22 1
   5    3   14 2
   6    4   23 1
   7    4   28 1
   8    5   25 1
   9    5   29 1
  10    6   14 am
  11    6   15 1
  12    6   39 1
  13    7   15 2
  14    7   17 1
  15    8   19 1
  16    8   20 1
  17    8   40 1
  18    9   18 1
  19    9   20 2
  20   10   11 1
  21   10   12 1
  22   10   13 1
  23   10   30 1
  24   11   14 1
  25   11   31 1
  26   11   32 1
  27   12   33 1
  28   12   34 1
  29   12   35 1
  30   13   36 1
  31   13   37 1
  32   13   38 1
  33   16   17 2
  34   16   18 1
  35   17   21 1
  36   18   22 2
  37   19   23 ar
  38   19   24 ar
  39   21   41 1
  40   21   42 1
  41   21   43 1
  42   22   44 1
  43   23   26 ar
  44   24   25 ar
  45   24   45 1
  46   25   27 ar
  47   26   27 ar
  48   26   46 1
  49   27   47 1
  50   28   48 1
  51   28   49 1
  52   28   50 1
  53   29   51 1
  54   29   52 1
  55   29   53 1

#	End of record

#	Name: 11958477
#	Creating user name:	landrgr1
#	Creation time:	28. 01. 2015 13:52

#	Modifying user name:	landrgr1
#	Modification time:	28. 01. 2015 13:52

#	Program:	corina 3.48 0006  22.01.2010

@<TRIPOS>MOLECULE
11958477
  41   42    0    0    0
SMALL
NO_CHARGES


@<TRIPOS>ATOM
   1 S1            -0.0225     1.8097     0.0120 S.3     
   2 F2             3.8034     5.1847    -0.0065 F       
   3 O3            -3.2473    -1.1966    -0.7180 O.3     
   4 O4            -4.6084    -1.7259     2.5631 O.2     
   5 O5            -2.0691     0.4488     3.2425 O.3     
   6 O6            -1.3172    -1.6381     3.1616 O.2     
   7 N7            -5.7016    -2.1142     0.6696 N.am    
   8 N8            -2.1516    -0.7899    -1.0219 N.2     
   9 C9            -7.9825    -2.9540     0.3986 C.3     
  10 C10           -6.8925    -2.5597     1.3973 C.3     
  11 C11           -9.2263    -3.4192     1.1586 C.3     
  12 C12           -3.4047    -1.2659     0.6132 C.2     
  13 C13           -2.2015    -0.8267     1.1592 C.2     
  14 C14           -1.4117    -0.5257     0.0127 C.2     
  15 C15           -4.6072    -1.7157     1.3479 C.2     
  16 C16          -10.3163    -3.8135     0.1599 C.3     
  17 C17            0.0021    -0.0041     0.0020 C.3     
  18 C18           -1.8331    -0.7024     2.5837 C.2     
  19 C19            1.6887     2.2294    -0.0021 C.ar    
  20 C20            2.0785     3.5632     0.0013 C.ar    
  21 C21            2.6513     1.2272    -0.0109 C.ar    
  22 C22            3.4224     3.8885    -0.0098 C.ar    
  23 C23            3.9921     1.5584    -0.0220 C.ar    
  24 C24            4.3785     2.8858    -0.0248 C.ar    
  25 H25           -8.2359    -2.0939    -0.2211 H       
  26 H26           -7.6196    -3.7636    -0.2345 H       
  27 H27           -6.6391    -3.4198     2.0170 H       
  28 H28           -7.2554    -1.7500     2.0304 H       
  29 H29           -8.9729    -4.2794     1.7783 H       
  30 H30           -9.5892    -2.6096     1.7917 H       
  31 H31           -5.7006    -2.1061    -0.3004 H       
  32 H32          -10.5697    -2.9534    -0.4598 H       
  33 H33           -9.9534    -4.6232    -0.4732 H       
  34 H34          -11.2024    -4.1450     0.7013 H       
  35 H35            0.5123    -0.3556    -0.8948 H       
  36 H36            0.5293    -0.3651     0.8851 H       
  37 H37            1.3329     4.3445     0.0123 H       
  38 H38            2.3512     0.1897    -0.0088 H       
  39 H39            4.7399     0.7792    -0.0289 H       
  40 H40            5.4277     3.1417    -0.0338 H       
  41 H41           -1.8107     0.4827     4.1738 H       
@<TRIPOS>BOND
   1    1   17 1
   2    1   19 1
   3    2   22 1
   4    3    8 1
   5    3   12 1
   6    4   15 2
   7    5   18 1
   8    5   41 1
   9    6   18 2
  10    7   10 1
  11    7   15 am
  12    7   31 1
  13    8   14 2
  14    9   10 1
  15    9   11 1
  16    9   25 1
  17    9   26 1
  18   10   27 1
  19   10   28 1
  20   11   16 1
  21   11   29 1
  22   11   30 1
  23   12   13 2
  24   12   15 1
  25   13   14 1
  26   13   18 1
  27   14   17 1
  28   16   32 1
  29   16   33 1
  30   16   34 1
  31   17   35 1
  32   17   36 1
  33   19   20 ar
  34   19   21 ar
  35   20   22 ar
  36   20   37 1
  37   21   23 ar
  38   21   38 1
  39   22   24 ar
  40   23   24 ar
  41   23   39 1
  42   24   40 1

#	End of record

#	Name: 11958471
#	Creating user name:	landrgr1
#	Creation time:	28. 01. 2015 13:52

#	Modifying user name:	landrgr1
#	Modification time:	28. 01. 2015 13:52

#	Program:	corina 3.48 0006  22.01.2010

@<TRIPOS>MOLECULE
11958471
  38   39    0    0    0
SMALL
NO_CHARGES


@<TRIPOS>ATOM
   1 S1            -0.0225     1.8097     0.0120 S.3     
   2 O2            -3.2473    -1.1966    -0.7180 O.3     
   3 O3            -4.6084    -1.7259     2.5631 O.2     
   4 O4            -2.0691     0.4488     3.2425 O.3     
   5 O5            -1.3172    -1.6381     3.1616 O.2     
   6 N6            -5.7016    -2.1142     0.6696 N.am    
   7 N7            -2.1516    -0.7899    -1.0219 N.2     
   8 C8            -6.8925    -2.5597     1.3973 C.3     
   9 C9            -3.4047    -1.2659     0.6132 C.2     
  10 C10           -2.2015    -0.8267     1.1592 C.2     
  11 C11           -1.4117    -0.5257     0.0127 C.2     
  12 C12           -7.7458    -1.3458     1.7705 C.3     
  13 C13           -7.7081    -3.5035     0.5113 C.3     
  14 C14           -4.6072    -1.7157     1.3479 C.2     
  15 C15            0.0021    -0.0041     0.0020 C.3     
  16 C16           -1.8331    -0.7024     2.5837 C.2     
  17 C17            1.6887     2.2294    -0.0021 C.ar    
  18 C18            2.0788     3.5633     0.0013 C.ar    
  19 C19            2.6516     1.2274    -0.0109 C.ar    
  20 C20            3.4208     3.8884    -0.0092 C.ar    
  21 C21            3.9917     1.5600    -0.0214 C.ar    
  22 C22            4.3762     2.8885    -0.0233 C.ar    
  23 H23           -6.5896    -3.0835     2.3039 H       
  24 H24           -5.7006    -2.1061    -0.3004 H       
  25 H25           -7.1647    -0.6734     2.4017 H       
  26 H26           -8.0487    -0.8220     0.8639 H       
  27 H27           -8.6319    -1.6773     2.3119 H       
  28 H28           -7.1002    -4.3682     0.2454 H       
  29 H29           -8.5942    -3.8349     1.0527 H       
  30 H30           -8.0111    -2.9797    -0.3953 H       
  31 H31            0.5123    -0.3556    -0.8948 H       
  32 H32            0.5293    -0.3651     0.8851 H       
  33 H33            1.3333     4.3446     0.0119 H       
  34 H34            2.3521     0.1897    -0.0091 H       
  35 H35            3.7247     4.9248    -0.0069 H       
  36 H36            4.7406     0.7818    -0.0282 H       
  37 H37            5.4251     3.1458    -0.0319 H       
  38 H38           -1.8107     0.4827     4.1738 H       
@<TRIPOS>BOND
   1    1   15 1
   2    1   17 1
   3    2    7 1
   4    2    9 1
   5    3   14 2
   6    4   16 1
   7    4   38 1
   8    5   16 2
   9    6    8 1
  10    6   14 am
  11    6   24 1
  12    7   11 2
  13    8   12 1
  14    8   13 1
  15    8   23 1
  16    9   10 2
  17    9   14 1
  18   10   11 1
  19   10   16 1
  20   11   15 1
  21   12   25 1
  22   12   26 1
  23   12   27 1
  24   13   28 1
  25   13   29 1
  26   13   30 1
  27   15   31 1
  28   15   32 1
  29   17   18 ar
  30   17   19 ar
  31   18   20 ar
  32   18   33 1
  33   19   21 ar
  34   19   34 1
  35   20   22 ar
  36   20   35 1
  37   21   22 ar
  38   21   36 1
  39   22   37 1

#	End of record

#	Name: 11958448
#	Creating user name:	landrgr1
#	Creation time:	28. 01. 2015 13:52

#	Modifying user name:	landrgr1
#	Modification time:	28. 01. 2015 13:52

#	Program:	corina 3.48 0006  22.01.2010

@<TRIPOS>MOLECULE
11958448
  44   45    0    0    0
SMALL
NO_CHARGES


@<TRIPOS>ATOM
   1 S1            -0.0225     1.8097     0.0120 S.3     
   2 O2            -3.2471    -1.1970    -0.7180 O.3     
   3 O3            -4.6080    -1.7270     2.5631 O.2     
   4 O4            -1.2606    -1.7421     3.2238 O.3     
   5 O5            -2.0450     0.3339     3.1784 O.2     
   6 N6            -5.7013    -2.1148     0.6696 N.am    
   7 N7            -2.1516    -0.7899    -1.0219 N.2     
   8 C8            -6.8922    -2.5603     1.3973 C.3     
   9 C9            -1.4117    -0.5257     0.0127 C.2     
  10 C10           -2.2013    -0.8271     1.1592 C.2     
  11 C11           -3.4045    -1.2666     0.6132 C.2     
  12 C12            0.0021    -0.0041     0.0020 C.3     
  13 C13           -7.7454    -1.3465     1.7709 C.3     
  14 C14           -7.7080    -3.5038     0.5112 C.3     
  15 C15           -4.6069    -1.7165     1.3479 C.2     
  16 C16            3.4209     3.8883    -0.0093 C.ar    
  17 C17            1.6887     2.2294    -0.0021 C.ar    
  18 C18            4.3762     2.8885    -0.0233 C.ar    
  19 C19            2.0787     3.5631     0.0013 C.ar    
  20 C20            2.6517     1.2272    -0.0162 C.ar    
  21 C21            3.9916     1.5598    -0.0268 C.ar    
  22 C22            3.8450     5.3343     0.0007 C.3     
  23 C23            5.8397     3.2475    -0.0354 C.3     
  24 C24           -1.8326    -0.7038     2.5837 C.2     
  25 H25           -6.5893    -3.0844     2.3037 H       
  26 H26           -5.7005    -2.1064    -0.3004 H       
  27 H27            0.5123    -0.3556    -0.8948 H       
  28 H28            0.5293    -0.3651     0.8851 H       
  29 H29           -8.0484    -0.8224     0.8644 H       
  30 H30           -8.6315    -1.6780     2.3123 H       
  31 H31           -7.1643    -0.6743     2.4022 H       
  32 H32           -7.1002    -4.3686     0.2450 H       
  33 H33           -8.5941    -3.8353     1.0526 H       
  34 H34           -8.0110    -2.9798    -0.3953 H       
  35 H35            1.3332     4.3444     0.0127 H       
  36 H36            2.3522     0.1896    -0.0186 H       
  37 H37            4.7404     0.7817    -0.0381 H       
  38 H38            3.9414     5.6918    -1.0245 H       
  39 H39            3.0962     5.9290     0.5240 H       
  40 H40            4.8042     5.4281     0.5099 H       
  41 H41            6.2024     3.3289     0.9893 H       
  42 H42            6.3997     2.4722    -0.5584 H       
  43 H43            5.9758     4.2009    -0.5458 H       
  44 H44           -1.0369    -1.6140     4.1558 H       
@<TRIPOS>BOND
   1    1   12 1
   2    1   17 1
   3    2    7 1
   4    2   11 1
   5    3   15 2
   6    4   24 1
   7    4   44 1
   8    5   24 2
   9    6    8 1
  10    6   15 am
  11    6   26 1
  12    7    9 2
  13    8   13 1
  14    8   14 1
  15    8   25 1
  16    9   10 1
  17    9   12 1
  18   10   11 2
  19   10   24 1
  20   11   15 1
  21   12   27 1
  22   12   28 1
  23   13   29 1
  24   13   30 1
  25   13   31 1
  26   14   32 1
  27   14   33 1
  28   14   34 1
  29   16   18 ar
  30   16   19 ar
  31   16   22 1
  32   17   19 ar
  33   17   20 ar
  34   18   21 ar
  35   18   23 1
  36   19   35 1
  37   20   21 ar
  38   20   36 1
  39   21   37 1
  40   22   38 1
  41   22   39 1
  42   22   40 1
  43   23   41 1
  44   23   42 1
  45   23   43 1

#	End of record

#	Name: 11958442
#	Creating user name:	landrgr1
#	Creation time:	28. 01. 2015 13:52

#	Modifying user name:	landrgr1
#	Modification time:	28. 01. 2015 13:52

#	Program:	corina 3.48 0006  22.01.2010

@<TRIPOS>MOLECULE
11958442
  55   59    0    0    0
SMALL
NO_CHARGES


@<TRIPOS>ATOM
   1 O1            -0.0171     1.4099     0.0098 O.3     
   2 O2             2.6246     3.1178    -1.5400 O.2     
   3 O3             1.9027    -0.3651    -5.1434 O.3     
   4 O4             1.5956    -6.8973     0.4626 O.2     
   5 O5             3.5497    -6.4015     1.0841 O.2     
   6 N6             1.6675     2.3792     2.3384 N.3     
   7 N7             0.0021    -0.0041     0.0020 N.2     
   8 N8             1.4616     1.4556    -2.4380 N.am    
   9 N9             2.4351    -6.0575     0.7334 N.pl3   
  10 C10            1.3493     1.8630    -0.0008 C.3     
  11 C11            2.0816     0.6604     0.6637 C.3     
  12 C12            1.5229     3.0040     1.0145 C.3     
  13 C13            2.0240     0.9633     2.1696 C.3     
  14 C14            1.1420    -0.4921     0.3594 C.2     
  15 C15            1.8582     2.1914    -1.3808 C.2     
  16 C16            2.6733     3.0827     3.1455 C.3     
  17 C17            1.4755    -1.9271     0.4558 C.ar    
  18 C18            2.6213     2.5781     4.5645 C.ar    
  19 C19            0.5156    -2.8924     0.1458 C.ar    
  20 C20            2.7538    -2.3249     0.8520 C.ar    
  21 C21            1.9563     1.7748    -3.7795 C.3     
  22 C22            3.4036     1.5039     4.9453 C.ar    
  23 C23            1.7954     3.1930     5.4869 C.ar    
  24 C24            0.8340    -4.2315     0.2376 C.ar    
  25 C25            3.0587    -3.6675     0.9395 C.ar    
  26 C26            1.3662     0.8098    -4.7753 C.2     
  27 C27            2.1010    -4.6189     0.6363 C.ar    
  28 C28            3.3558     1.0410     6.2469 C.ar    
  29 C29            1.7476     2.7302     6.7886 C.ar    
  30 C30            2.5260     1.6526     7.1680 C.ar    
  31 C31            0.2129     0.9793    -5.4466 C.2     
  32 C32            0.0451    -0.1600    -6.2669 C.2     
  33 C33            1.1059    -0.9575    -6.0477 C.2     
  34 H34            3.0964     0.5123     0.2943 H       
  35 H35            0.6456     3.6507     1.0016 H       
  36 H36            2.4157     3.5821     0.7759 H       
  37 H37            2.9976     0.7725     2.6211 H       
  38 H38            1.2696     0.3348     2.6429 H       
  39 H39            3.6647     2.8997     2.7309 H       
  40 H40            2.4660     4.1527     3.1325 H       
  41 H41            0.8486     0.7147    -2.3107 H       
  42 H42           -0.4740    -2.5914    -0.1649 H       
  43 H43            3.5022    -1.5833     1.0889 H       
  44 H44            1.6643     2.7916    -4.0420 H       
  45 H45            3.0431     1.6934    -3.7949 H       
  46 H46            4.0519     1.0261     4.2257 H       
  47 H47            1.1878     4.0353     5.1906 H       
  48 H48            0.0925    -4.9793    -0.0020 H       
  49 H49            4.0472    -3.9766     1.2458 H       
  50 H50            3.9665     0.2014     6.5442 H       
  51 H51            1.1027     3.2108     7.5093 H       
  52 H52            2.4884     1.2908     8.1849 H       
  53 H53           -0.4567     1.8235    -5.3728 H       
  54 H54           -0.7771    -0.3530    -6.9399 H       
  55 H55            1.2863    -1.9124    -6.5191 H       
@<TRIPOS>BOND
   1    1    7 1
   2    1   10 1
   3    2   15 2
   4    3   26 1
   5    3   33 1
   6    4    9 2
   7    5    9 2
   8    6   12 1
   9    6   13 1
  10    6   16 1
  11    7   14 2
  12    8   15 am
  13    8   21 1
  14    8   41 1
  15    9   27 1
  16   10   11 1
  17   10   12 1
  18   10   15 1
  19   11   13 1
  20   11   14 1
  21   11   34 1
  22   12   35 1
  23   12   36 1
  24   13   37 1
  25   13   38 1
  26   14   17 1
  27   16   18 1
  28   16   39 1
  29   16   40 1
  30   17   19 ar
  31   17   20 ar
  32   18   22 ar
  33   18   23 ar
  34   19   24 ar
  35   19   42 1
  36   20   25 ar
  37   20   43 1
  38   21   26 1
  39   21   44 1
  40   21   45 1
  41   22   28 ar
  42   22   46 1
  43   23   29 ar
  44   23   47 1
  45   24   27 ar
  46   24   48 1
  47   25   27 ar
  48   25   49 1
  49   26   31 2
  50   28   30 ar
  51   28   50 1
  52   29   30 ar
  53   29   51 1
  54   30   52 1
  55   31   32 1
  56   31   53 1
  57   32   33 2
  58   32   54 1
  59   33   55 1

#	End of record

#	Name: 11958440
#	Creating user name:	landrgr1
#	Creation time:	28. 01. 2015 13:52

#	Modifying user name:	landrgr1
#	Modification time:	28. 01. 2015 13:52

#	Program:	corina 3.48 0006  22.01.2010

@<TRIPOS>MOLECULE
11958440
  51   53    0    0    0
SMALL
NO_CHARGES


@<TRIPOS>ATOM
   1 Cl1            8.4689     9.5157    -0.0927 Cl      
   2 S2            -0.0276     1.8472     0.5666 S.3     
   3 S3             3.5000     5.3835     0.5977 S.3     
   4 O4            -0.0431    -2.4977    -0.2111 O.2     
   5 N5            -1.2085    -0.6840     0.3127 N.am    
   6 N6             1.1271    -0.3040    -0.0165 N.2     
   7 N7             3.9063     2.9567     0.0951 N.2     
   8 N8             5.9477     4.1799    -0.0347 N.pl3   
   9 C9            -3.2267    -5.1934    -0.1542 C.3     
  10 C10           -1.9744    -4.3160    -0.2095 C.3     
  11 C11           -2.8501    -6.6406    -0.4781 C.3     
  12 C12           -2.3510    -2.8689     0.1144 C.3     
  13 C13           -4.1023    -7.5179    -0.4229 C.3     
  14 C14           -1.1176    -2.0047     0.0600 C.2     
  15 C15           -3.7258    -8.9651    -0.7468 C.3     
  16 C16           -0.0713     0.1128     0.2625 C.2     
  17 C17            1.7100     1.8524     0.2716 C.2     
  18 C18            2.0895     0.5931    -0.0193 C.2     
  19 C19            2.5971     3.0342     0.3320 C.2     
  20 C20            3.5208     0.2356    -0.3268 C.3     
  21 C21            2.1395     4.2645     0.6296 C.2     
  22 C22            4.5831     4.0605     0.1769 C.2     
  23 C23            6.5450     5.4440    -0.0484 C.ar    
  24 C24            7.8219     5.6160     0.4708 C.ar    
  25 C25            5.8650     6.5291    -0.5865 C.ar    
  26 C26            8.4096     6.8656     0.4555 C.ar    
  27 C27            6.4575     7.7765    -0.5992 C.ar    
  28 C28            7.7275     7.9460    -0.0761 C.ar    
  29 H29           -3.6600    -5.1456     0.8448 H       
  30 H30           -3.9537    -4.8353    -0.8831 H       
  31 H31           -1.2474    -4.6742     0.5195 H       
  32 H32           -1.5411    -4.3638    -1.2085 H       
  33 H33           -2.4168    -6.6883    -1.4771 H       
  34 H34           -2.1231    -6.9987     0.2508 H       
  35 H35           -3.0780    -2.5108    -0.6145 H       
  36 H36           -2.7843    -2.8211     1.1135 H       
  37 H37           -4.5357    -7.4702     0.5761 H       
  38 H38           -4.8293    -7.1598    -1.1518 H       
  39 H39           -2.9988    -9.3232    -0.0179 H       
  40 H40           -4.6179    -9.5901    -0.7074 H       
  41 H41           -3.2925    -9.0129    -1.7458 H       
  42 H42           -2.0677    -0.2897     0.5295 H       
  43 H43            3.6963     0.3287    -1.3985 H       
  44 H44            4.1873     0.9103     0.2105 H       
  45 H45            3.7140    -0.7908    -0.0148 H       
  46 H46            1.1141     4.5216     0.8508 H       
  47 H47            6.4883     3.3866    -0.1732 H       
  48 H48            8.3544     4.7733     0.8864 H       
  49 H49            4.8739     6.3974    -0.9949 H       
  50 H50            9.4023     6.9999     0.8590 H       
  51 H51            5.9293     8.6205    -1.0175 H       
@<TRIPOS>BOND
   1    1   28 1
   2    2   16 1
   3    2   17 1
   4    3   21 1
   5    3   22 1
   6    4   14 2
   7    5   14 am
   8    5   16 1
   9    5   42 1
  10    6   16 2
  11    6   18 1
  12    7   19 1
  13    7   22 2
  14    8   22 1
  15    8   23 1
  16    8   47 1
  17    9   10 1
  18    9   11 1
  19    9   29 1
  20    9   30 1
  21   10   12 1
  22   10   31 1
  23   10   32 1
  24   11   13 1
  25   11   33 1
  26   11   34 1
  27   12   14 1
  28   12   35 1
  29   12   36 1
  30   13   15 1
  31   13   37 1
  32   13   38 1
  33   15   39 1
  34   15   40 1
  35   15   41 1
  36   17   18 2
  37   17   19 1
  38   18   20 1
  39   19   21 2
  40   20   43 1
  41   20   44 1
  42   20   45 1
  43   21   46 1
  44   23   24 ar
  45   23   25 ar
  46   24   26 ar
  47   24   48 1
  48   25   27 ar
  49   25   49 1
  50   26   28 ar
  51   26   50 1
  52   27   28 ar
  53   27   51 1

#	End of record

#	Name: 11958420
#	Creating user name:	landrgr1
#	Creation time:	28. 01. 2015 13:52

#	Modifying user name:	landrgr1
#	Modification time:	28. 01. 2015 13:52

#	Program:	corina 3.48 0006  22.01.2010

@<TRIPOS>MOLECULE
11958420
  35   36    0    0    0
SMALL
NO_CHARGES


@<TRIPOS>ATOM
   1 Cl1            0.0000     0.0000     0.0000 Cl      
   2 H2             0.0000     1.3700     0.0000 H       
   3 F3             9.3814     6.3700    11.4550 F       
   4 O4             7.2194     8.3719     6.9061 O.2     
   5 N5             7.1316    13.2123     7.0679 N.3     
   6 N6             9.7287    11.5538     9.7681 N.ar    
   7 N7             5.6483     8.9232     8.3758 N.am    
   8 C8             8.0298    11.2251     8.1661 C.ar    
   9 C9             7.1515    11.7460     7.0598 C.3     
  10 C10            9.1368    13.4809     8.4252 C.3     
  11 C11            8.5054    13.7393     7.0576 C.3     
  12 C12            8.9656    12.0298     8.8061 C.ar    
  13 C13            7.8898     9.8936     8.5480 C.ar    
  14 C14            8.7202     9.4056     9.5867 C.ar    
  15 C15            9.6505    10.2909    10.1857 C.ar    
  16 C16            6.3589    13.7345     5.9329 C.3     
  17 C17            6.9015     9.0136     7.8882 C.2     
  18 C18            8.6395     8.0790    10.0269 C.ar    
  19 C19           10.4799     9.8133    11.2178 C.ar    
  20 C20            9.4593     7.6501    11.0303 C.ar    
  21 C21           10.3768     8.5192    11.6233 C.ar    
  22 H22            6.1374    11.3711     7.1981 H       
  23 H23            7.5341    11.3961     6.1010 H       
  24 H24           10.1992    13.7212     8.3845 H       
  25 H25            8.6532    14.1107     9.1719 H       
  26 H26            9.0854    13.2341     6.2853 H       
  27 H27            8.4846    14.8112     6.8608 H       
  28 H28            5.3332    13.3708     5.9936 H       
  29 H29            6.3604    14.8241     5.9631 H       
  30 H30            6.8098    13.3962     5.0000 H       
  31 H31            7.9323     7.3990     9.5753 H       
  32 H32           11.1962    10.4722    11.6861 H       
  33 H33           11.0158     8.1579    12.4153 H       
  34 H34            5.0000     8.3459     7.9429 H       
  35 H35            5.3947     9.4353     9.1595 H       
@<TRIPOS>BOND
   1    1    2 1
   2    3   20 1
   3    4   17 2
   4    5    9 1
   5    5   11 1
   6    5   16 1
   7    6   12 ar
   8    6   15 ar
   9    7   17 am
  10    7   34 1
  11    7   35 1
  12    8    9 1
  13    8   12 ar
  14    8   13 ar
  15    9   22 1
  16    9   23 1
  17   10   11 1
  18   10   12 1
  19   10   24 1
  20   10   25 1
  21   11   26 1
  22   11   27 1
  23   13   14 ar
  24   13   17 1
  25   14   15 ar
  26   14   18 ar
  27   15   19 ar
  28   16   28 1
  29   16   29 1
  30   16   30 1
  31   18   20 ar
  32   18   31 1
  33   19   21 ar
  34   19   32 1
  35   20   21 ar
  36   21   33 1

#	End of record

#	Name: 11958388
#	Creating user name:	landrgr1
#	Creation time:	28. 01. 2015 13:52

#	Modifying user name:	landrgr1
#	Modification time:	28. 01. 2015 13:52

#	Program:	corina 3.48 0006  22.01.2010

@<TRIPOS>MOLECULE
11958388
  35   36    0    0    0
SMALL
NO_CHARGES


@<TRIPOS>ATOM
   1 Cl1            5.7088     1.1262    -0.0452 Cl      
   2 Cl2           10.5462     3.5257    -0.0802 Cl      
   3 S3            -0.0218     1.7546     0.0117 S.3     
   4 N4             2.1546     0.5822    -0.0154 N.2     
   5 N5             2.4579     2.9389    -0.0056 N.pl3   
   6 N6             3.8557     2.8453    -0.0195 N.2     
   7 C7            -0.7633    -2.3179    -0.4073 C.3     
   8 C8             0.4620    -2.7188     0.4194 C.3     
   9 C9            -1.2060    -0.9106     0.0081 C.3     
  10 C10            1.6687    -1.8887    -0.0237 C.3     
  11 C11            0.0021    -0.0041     0.0020 C.2     
  12 C12            1.2811    -0.4175    -0.0123 C.2     
  13 C13            1.6867     1.7883    -0.0044 C.2     
  14 C14            6.0495     3.8254    -0.0352 C.ar    
  15 C15            4.5786     3.9239    -0.0206 C.2     
  16 C16            6.6693     2.5723    -0.0478 C.ar    
  17 C17            6.8304     4.9839    -0.0423 C.ar    
  18 C18            8.0471     2.4879    -0.0619 C.ar    
  19 C19            8.2057     4.8849    -0.0564 C.ar    
  20 C20            8.8141     3.6405    -0.0631 C.ar    
  21 H21           -0.5059    -2.3215    -1.4665 H       
  22 H22           -1.5734    -3.0239    -0.2248 H       
  23 H23            0.2635    -2.5364     1.4755 H       
  24 H24            0.6731    -3.7772     0.2666 H       
  25 H25           -1.9475    -0.5369    -0.6980 H       
  26 H26           -1.6344    -0.9426     1.0099 H       
  27 H27            2.4981    -2.0535     0.6641 H       
  28 H28            1.9633    -2.1812    -1.0316 H       
  29 H29            2.0302     3.8095     0.0031 H       
  30 H30            4.1024     4.8931    -0.0108 H       
  31 H31            6.3579     5.9551    -0.0371 H       
  32 H32            8.5277     1.5207    -0.0717 H       
  33 H33            8.8100     5.7800    -0.0622 H       
  34 Cl34          15.5462    10.9551     6.4755 Cl      
  35 H35           15.5462    12.3251     6.4755 H       
@<TRIPOS>BOND
   1    1   16 1
   2    2   20 1
   3    3   11 1
   4    3   13 1
   5    4   12 1
   6    4   13 2
   7    5    6 1
   8    5   13 1
   9    5   29 1
  10    6   15 2
  11    7    8 1
  12    7    9 1
  13    7   21 1
  14    7   22 1
  15    8   10 1
  16    8   23 1
  17    8   24 1
  18    9   11 1
  19    9   25 1
  20    9   26 1
  21   10   12 1
  22   10   27 1
  23   10   28 1
  24   11   12 2
  25   14   15 1
  26   14   16 ar
  27   14   17 ar
  28   15   30 1
  29   16   18 ar
  30   17   19 ar
  31   17   31 1
  32   18   20 ar
  33   18   32 1
  34   19   20 ar
  35   19   33 1
  36   34   35 1

#	End of record

#	Name: 11957232
#	Creating user name:	landrgr1
#	Creation time:	28. 01. 2015 13:52

#	Modifying user name:	landrgr1
#	Modification time:	28. 01. 2015 13:52

#	Program:	corina 3.48 0006  22.01.2010

@<TRIPOS>MOLECULE
11957232
  50   52    0    0    0
SMALL
NO_CHARGES


@<TRIPOS>ATOM
   1 O1            -0.0176     1.4485     0.0100 O.3     
   2 O2             1.6030     3.0415     0.0031 O.2     
   3 O3             3.1849    -1.9789    -0.0386 O.2     
   4 O4            -1.6053    -6.9620    -2.3893 O.3     
   5 N5             1.1367    -2.8367    -0.0231 N.am    
   6 C6             0.0021    -0.0041     0.0020 C.3     
   7 C7            -0.6792    -0.5449     1.2582 C.3     
   8 C8            -0.7032    -0.5314    -1.2467 C.3     
   9 C9            -2.8502    -0.6465     0.0258 C.3     
  10 C10           -2.1455    -0.1066     1.2718 C.3     
  11 C11           -2.1694    -0.0931    -1.2275 C.3     
  12 C12            1.4550    -0.4105    -0.0140 C.2     
  13 C13           -2.7702    -2.1744     0.0168 C.3     
  14 C14            2.1738     0.7246    -0.0148 C.2     
  15 C15            1.2583     1.8769     0.0001 C.2     
  16 C16            1.9846    -1.7891    -0.0261 C.2     
  17 C17            3.6786     0.8051    -0.0287 C.3     
  18 C18            1.6619    -4.2042    -0.0351 C.3     
  19 C19            0.5158    -5.1827    -0.0289 C.ar    
  20 C20           -0.0206    -5.6247    -1.2226 C.ar    
  21 C21            0.0057    -5.6416     1.1717 C.ar    
  22 C22           -1.0755    -6.5259    -1.2162 C.ar    
  23 C23           -1.0454    -6.5396     1.1807 C.ar    
  24 C24           -1.5889    -6.9807    -0.0105 C.ar    
  25 C25           -2.6895    -7.8892    -2.3066 C.3     
  26 H26           -0.6254    -1.6336     1.2607 H       
  27 H27           -0.1749    -0.1541     2.1420 H       
  28 H28           -0.2158    -0.1311    -2.1357 H       
  29 H29           -0.6495    -1.6200    -1.2619 H       
  30 H30           -3.8956    -0.3380     0.0374 H       
  31 H31           -2.6337    -0.4986     2.1640 H       
  32 H32           -2.1993     0.9821     1.2766 H       
  33 H33           -2.2231     0.9955    -1.2196 H       
  34 H34           -2.6746    -0.4755    -2.1144 H       
  35 H35           -3.2563    -2.5690     0.9090 H       
  36 H36           -3.2722    -2.5593    -0.8708 H       
  37 H37           -1.7250    -2.4834     0.0058 H       
  38 H38            4.0316     0.8301    -1.0597 H       
  39 H39            3.9988     1.7105     0.4869 H       
  40 H40            4.0938    -0.0669     0.4765 H       
  41 H41            0.1786    -2.6852    -0.0131 H       
  42 H42            2.2633    -4.3547    -0.9317 H       
  43 H43            2.2804    -4.3636     0.8482 H       
  44 H44            0.3807    -5.2689    -2.1600 H       
  45 H45            0.4293    -5.2983     2.1039 H       
  46 H46           -1.4421    -6.8965     2.1197 H       
  47 H47           -2.4101    -7.6822    -0.0030 H       
  48 H48           -2.3610    -8.7865    -1.7821 H       
  49 H49           -3.5170    -7.4331    -1.7632 H       
  50 H50           -3.0174    -8.1553    -3.3115 H       
@<TRIPOS>BOND
   1    1    6 1
   2    1   15 1
   3    2   15 2
   4    3   16 2
   5    4   22 1
   6    4   25 1
   7    5   16 am
   8    5   18 1
   9    5   41 1
  10    6    7 1
  11    6    8 1
  12    6   12 1
  13    7   10 1
  14    7   26 1
  15    7   27 1
  16    8   11 1
  17    8   28 1
  18    8   29 1
  19    9   10 1
  20    9   11 1
  21    9   13 1
  22    9   30 1
  23   10   31 1
  24   10   32 1
  25   11   33 1
  26   11   34 1
  27   12   14 2
  28   12   16 1
  29   13   35 1
  30   13   36 1
  31   13   37 1
  32   14   15 1
  33   14   17 1
  34   17   38 1
  35   17   39 1
  36   17   40 1
  37   18   19 1
  38   18   42 1
  39   18   43 1
  40   19   20 ar
  41   19   21 ar
  42   20   22 ar
  43   20   44 1
  44   21   23 ar
  45   21   45 1
  46   22   24 ar
  47   23   24 ar
  48   23   46 1
  49   24   47 1
  50   25   48 1
  51   25   49 1
  52   25   50 1

#	End of record

#	Name: 11957199
#	Creating user name:	landrgr1
#	Creation time:	28. 01. 2015 13:52

#	Modifying user name:	landrgr1
#	Modification time:	28. 01. 2015 13:52

#	Program:	corina 3.48 0006  22.01.2010

@<TRIPOS>MOLECULE
11957199
  39   42    0    0    0
SMALL
NO_CHARGES


@<TRIPOS>ATOM
   1 O1            -0.0164     1.3563     0.0095 O.3     
   2 O2            -2.2792    -0.1285     0.0240 O.2     
   3 N3             2.4974    -8.2403    -0.0638 N.pl3   
   4 N4             2.5477    -6.8468    -0.0577 N.2     
   5 N5             3.6586    -4.7972    -0.0587 N.pl3   
   6 N6             3.2739   -10.2590    -0.0815 N.2     
   7 N7             2.4380    -4.1098    -0.0429 N.pl3   
   8 N8             1.9888   -10.3289    -0.0715 N.2     
   9 C9             4.9408    -8.3145    -0.0876 C.ar    
  10 C10            4.9543    -6.9017    -0.0819 C.ar    
  11 C11            3.6417    -8.9941    -0.0787 C.2     
  12 C12            3.6734    -6.1847    -0.0658 C.2     
  13 C13            6.1433    -9.0187    -0.1028 C.ar    
  14 C14            6.1733    -6.2245    -0.0901 C.ar    
  15 C15            7.3358    -8.3285    -0.1122 C.ar    
  16 C16            7.3501    -6.9404    -0.1035 C.ar    
  17 C17            1.4734    -9.1260    -0.0633 C.2     
  18 C18            1.2048    -2.0816    -0.0202 C.2     
  19 C19            2.4236    -2.7681    -0.0360 C.2     
  20 C20            1.1886    -0.6681    -0.0129 C.2     
  21 C21           -0.0108    -2.7996    -0.0169 C.2     
  22 C22            0.0021    -0.0041     0.0020 C.2     
  23 C23           -1.1937    -2.1328    -0.0025 C.2     
  24 C24           -1.2109    -0.7269     0.0102 C.2     
  25 C25            1.2479     2.0223     0.0010 C.3     
  26 H26            6.1406   -10.0987    -0.1069 H       
  27 H27            6.1946    -5.1447    -0.0862 H       
  28 H28            4.4934    -4.3032    -0.0647 H       
  29 H29            8.2685    -8.8728    -0.1240 H       
  30 H30            8.2942    -6.4159    -0.1102 H       
  31 H31            0.4210    -8.8835    -0.0572 H       
  32 H32            1.6032    -4.6037    -0.0369 H       
  33 H33            3.3531    -2.2181    -0.0426 H       
  34 H34            2.1171    -0.1165    -0.0188 H       
  35 H35            0.0001    -3.8795    -0.0267 H       
  36 H36           -2.1229    -2.6833    -0.0001 H       
  37 H37            1.8173     1.7322     0.8840 H       
  38 H38            1.8003     1.7418    -0.8958 H       
  39 H39            1.0905     3.1008     0.0083 H       
@<TRIPOS>BOND
   1    1   22 1
   2    1   25 1
   3    2   24 2
   4    3    4 1
   5    3   11 1
   6    3   17 1
   7    4   12 2
   8    5    7 1
   9    5   12 1
  10    5   28 1
  11    6    8 1
  12    6   11 2
  13    7   19 1
  14    7   32 1
  15    8   17 2
  16    9   10 ar
  17    9   11 1
  18    9   13 ar
  19   10   12 1
  20   10   14 ar
  21   13   15 ar
  22   13   26 1
  23   14   16 ar
  24   14   27 1
  25   15   16 ar
  26   15   29 1
  27   16   30 1
  28   17   31 1
  29   18   19 2
  30   18   20 1
  31   18   21 1
  32   19   33 1
  33   20   22 2
  34   20   34 1
  35   21   23 2
  36   21   35 1
  37   22   24 1
  38   23   24 1
  39   23   36 1
  40   25   37 1
  41   25   38 1
  42   25   39 1

#	End of record

#	Name: 11957180
#	Creating user name:	landrgr1
#	Creation time:	28. 01. 2015 13:52

#	Modifying user name:	landrgr1
#	Modification time:	28. 01. 2015 13:52

#	Program:	corina 3.48 0006  22.01.2010

@<TRIPOS>MOLECULE
11957180
  40   43    0    0    0
SMALL
NO_CHARGES


@<TRIPOS>ATOM
   1 S1            -0.0211     1.7077     0.0114 S.3     
   2 S2            -0.7680     3.6066    -2.3501 S.3     
   3 O3            -3.5950    -1.0283     0.5835 O.3     
   4 O4             6.4269    -4.1119    -0.6221 O.3     
   5 O5            -0.7182    -4.9051     1.5001 O.2     
   6 O6            -1.0160    -4.9888    -0.7599 O.2     
   7 N7             1.7113    -3.0840    -0.0386 N.pl3   
   8 N8            -0.8030    -4.2924     0.3374 N.pl3   
   9 N9            -3.0859    -2.1312     0.5577 N.2     
  10 N10           -2.8412    -0.0853     0.4491 N.2     
  11 N11           -0.9974     1.0992    -2.4527 N.2     
  12 C12            0.6141    -2.2478     0.0750 C.ar    
  13 C13            3.0475    -2.5166    -0.2357 C.3     
  14 C14           -0.6586    -2.8190     0.2639 C.ar    
  15 C15            4.0733    -3.6479    -0.3290 C.3     
  16 C16           -1.7925    -1.9982     0.3825 C.ar    
  17 C17            0.8061    -0.8828    -0.0012 C.ar    
  18 C18           -0.2771     0.0177     0.1077 C.ar    
  19 C19           -1.6258    -0.5250     0.3055 C.ar    
  20 C20            5.4688    -3.0552    -0.5349 C.3     
  21 C21           -0.6136     2.0145    -1.6194 C.2     
  22 C22           -1.3820     2.8776    -3.8317 C.ar    
  23 C23           -1.4214     1.4821    -3.6545 C.ar    
  24 C24           -1.7924     3.4441    -5.0355 C.ar    
  25 C25           -1.8880     0.6832    -4.7289 C.ar    
  26 C26           -2.2398     2.6390    -6.0598 C.ar    
  27 C27           -2.2839     1.2589    -5.8943 C.ar    
  28 H28            3.0629    -1.9351    -1.1576 H       
  29 H29            3.2953    -1.8699     0.6060 H       
  30 H30            1.5954    -4.0457     0.0122 H       
  31 H31            4.0578    -4.2293     0.5928 H       
  32 H32            3.8254    -4.2946    -1.1707 H       
  33 H33            1.8038    -0.4957    -0.1470 H       
  34 H34            5.7166    -2.4085     0.3068 H       
  35 H35            5.4842    -2.4738    -1.4567 H       
  36 H36           -1.7601     4.5157    -5.1662 H       
  37 H37           -1.9288    -0.3906    -4.6203 H       
  38 H38           -2.5580     3.0805    -6.9927 H       
  39 H39           -2.6361     0.6362    -6.7034 H       
  40 H40            7.3358    -3.8088    -0.7530 H       
@<TRIPOS>BOND
   1    1   18 1
   2    1   21 1
   3    2   21 1
   4    2   22 1
   5    3    9 1
   6    3   10 1
   7    4   20 1
   8    4   40 1
   9    5    8 2
  10    6    8 2
  11    7   12 1
  12    7   13 1
  13    7   30 1
  14    8   14 1
  15    9   16 2
  16   10   19 2
  17   11   21 2
  18   11   23 1
  19   12   14 ar
  20   12   17 ar
  21   13   15 1
  22   13   28 1
  23   13   29 1
  24   14   16 ar
  25   15   20 1
  26   15   31 1
  27   15   32 1
  28   16   19 ar
  29   17   18 ar
  30   17   33 1
  31   18   19 ar
  32   20   34 1
  33   20   35 1
  34   22   23 ar
  35   22   24 ar
  36   23   25 ar
  37   24   26 ar
  38   24   36 1
  39   25   27 ar
  40   25   37 1
  41   26   27 ar
  42   26   38 1
  43   27   39 1

#	End of record

#	Name: 11957165
#	Creating user name:	landrgr1
#	Creation time:	28. 01. 2015 13:52

#	Modifying user name:	landrgr1
#	Modification time:	28. 01. 2015 13:52

#	Program:	corina 3.48 0006  22.01.2010

@<TRIPOS>MOLECULE
11957165
  26   27    0    0    0
SMALL
NO_CHARGES


@<TRIPOS>ATOM
   1 S1             0.2438     1.8407    -0.5828 S.3     
   2 O2             2.1541     2.8441     1.0276 O.2     
   3 O3            -1.6711    -0.1408    -2.0823 O.3     
   4 N4             1.5485    -1.6801     0.3414 N.ar    
   5 N5             1.9329     0.5869     0.7510 N.2     
   6 C6             3.1443    -3.3816     0.6474 C.ar    
   7 C7             0.8148    -3.9006     0.5988 C.ar    
   8 C8             2.8173    -2.0556     0.4553 C.ar    
   9 C9             0.5556    -2.5596     0.4077 C.ar    
  10 C10            1.2563    -0.3511     0.1566 C.2     
  11 C11            2.1302    -4.3266     0.7213 C.ar    
  12 C12            4.5864    -3.7999     0.7751 C.3     
  13 C13           -0.3175    -4.8923     0.6740 C.3     
  14 C14            0.2023     0.0686    -0.6909 C.2     
  15 C15            1.6148     1.8626     0.5433 C.2     
  16 C16           -0.6455    -0.7058    -1.4185 C.2     
  17 H17            3.6011    -1.3150     0.3965 H       
  18 H18           -0.4654    -2.2211     0.3113 H       
  19 H19            2.3599    -5.3713     0.8708 H       
  20 H20            4.8831    -3.7659     1.8234 H       
  21 H21            4.7052    -4.8151     0.3967 H       
  22 H22            5.2141    -3.1211     0.1977 H       
  23 H23           -0.5395    -5.2666    -0.3254 H       
  24 H24           -0.0302    -5.7236     1.3178 H       
  25 H25           -1.2016    -4.4040     1.0838 H       
  26 H26           -0.4962    -1.7745    -1.4639 H       
@<TRIPOS>BOND
   1    1   14 1
   2    1   15 1
   3    2   15 2
   4    3   16 1
   5    4    8 ar
   6    4    9 ar
   7    4   10 1
   8    5   10 2
   9    5   15 1
  10    6    8 ar
  11    6   11 ar
  12    6   12 1
  13    7    9 ar
  14    7   11 ar
  15    7   13 1
  16    8   17 1
  17    9   18 1
  18   10   14 1
  19   11   19 1
  20   12   20 1
  21   12   21 1
  22   12   22 1
  23   13   23 1
  24   13   24 1
  25   13   25 1
  26   14   16 2
  27   16   26 1

#	End of record

#	Name: 11957164
#	Creating user name:	landrgr1
#	Creation time:	28. 01. 2015 13:52

#	Modifying user name:	landrgr1
#	Modification time:	28. 01. 2015 13:52

#	Program:	corina 3.48 0006  22.01.2010

@<TRIPOS>MOLECULE
11957164
  29   30    0    0    0
SMALL
NO_CHARGES


@<TRIPOS>ATOM
   1 S1             1.1689     2.1725    -0.2935 S.3     
   2 O2            -1.2233     1.7293     0.8599 O.2     
   3 O3             4.0695     1.7744    -1.4197 O.3     
   4 N4             1.8272    -1.6266     0.0007 N.ar    
   5 N5             0.2210     0.0012     0.4753 N.2     
   6 C6             3.1883    -5.6455     0.0250 C.3     
   7 C7             2.7049    -4.2181     0.0163 C.ar    
   8 C8             2.4371    -6.4317     1.1013 C.3     
   9 C9             2.9304    -6.2797    -1.3432 C.3     
  10 C10            3.5833    -3.1709     0.2586 C.ar    
  11 C11            1.3718    -3.9228    -0.2339 C.ar    
  12 C12            3.1088    -1.8760     0.2439 C.ar    
  13 C13            0.9618    -2.6060    -0.2348 C.ar    
  14 C14            1.3856    -0.3263    -0.0016 C.2     
  15 C15            2.1748     0.7272    -0.5239 C.2     
  16 C16           -0.1671     1.2742     0.4525 C.2     
  17 C17            3.4152     0.6499    -1.0746 C.2     
  18 H18            4.2568    -5.6659     0.2394 H       
  19 H19            1.3685    -6.4112     0.8870 H       
  20 H20            2.7867    -7.4641     1.1077 H       
  21 H21            2.6208    -5.9798     2.0761 H       
  22 H22            3.4656    -5.7195    -2.1100 H       
  23 H23            3.2800    -7.3121    -1.3369 H       
  24 H24            1.8619    -6.2592    -1.5576 H       
  25 H25            4.6265    -3.3679     0.4569 H       
  26 H26            0.6637    -4.7153    -0.4261 H       
  27 H27            3.7865    -1.0564     0.4316 H       
  28 H28           -0.0738    -2.3689    -0.4287 H       
  29 H29            3.8756    -0.3137    -1.2353 H       
@<TRIPOS>BOND
   1    1   15 1
   2    1   16 1
   3    2   16 2
   4    3   17 1
   5    4   12 ar
   6    4   13 ar
   7    4   14 1
   8    5   14 2
   9    5   16 1
  10    6    7 1
  11    6    8 1
  12    6    9 1
  13    6   18 1
  14    7   10 ar
  15    7   11 ar
  16    8   19 1
  17    8   20 1
  18    8   21 1
  19    9   22 1
  20    9   23 1
  21    9   24 1
  22   10   12 ar
  23   10   25 1
  24   11   13 ar
  25   11   26 1
  26   12   27 1
  27   13   28 1
  28   14   15 1
  29   15   17 2
  30   17   29 1

#	End of record

#	Name: 11957152
#	Creating user name:	landrgr1
#	Creation time:	28. 01. 2015 13:52

#	Modifying user name:	landrgr1
#	Modification time:	28. 01. 2015 13:52

#	Program:	corina 3.48 0006  22.01.2010

@<TRIPOS>MOLECULE
11957152
  46   47    0    0    0
SMALL
NO_CHARGES


@<TRIPOS>ATOM
   1 Cl1            0.0000     0.0000     0.0000 Cl      
   2 H2             0.0000     1.3700     0.0000 H       
   3 O3            14.3064    13.8655     7.1322 O.3     
   4 O4            15.3629    11.9122     7.1142 O.2     
   5 N5             9.4320     9.0564     7.1402 N.pl3   
   6 N6            11.8197    12.3468     7.1397 N.2     
   7 C7             8.4057     8.0020     7.1423 C.3     
   8 C8             8.7746    10.2609     7.1567 C.2     
   9 C9             7.0764     8.7160     7.1619 C.2     
  10 C10            7.3220    10.0190     7.1698 C.2     
  11 C11           10.7704     8.9669     7.1304 C.2     
  12 C12           11.5458    10.1112     7.1306 C.2     
  13 C13            9.4632    11.4445     7.1591 C.2     
  14 C14           10.8725    11.4260     7.1415 C.2     
  15 C15            8.5261     7.1468     5.8794 C.3     
  16 C16           12.9216    10.3971     7.1229 C.2     
  17 C17            5.7167     8.0662     7.1700 C.3     
  18 C18            6.2680    11.0958     7.1902 C.3     
  19 C19           11.4316     7.6128     7.1199 C.3     
  20 C20           13.0353    11.7786     7.1289 C.2     
  21 C21           14.0505     9.3989     7.1113 C.3     
  22 C22           14.3091    12.5176     7.1246 C.2     
  23 C23           15.5987    14.5274     7.1273 C.3     
  24 C24           15.3951    16.0437     7.1372 C.3     
  25 H25            8.5100     7.3783     8.0302 H       
  26 H26            8.9309    12.3842     7.1719 H       
  27 H27            9.5128     6.6848     5.8461 H       
  28 H28            7.7615     6.3700     5.8923 H       
  29 H29            8.3897     7.7762     5.0000 H       
  30 H30            5.3992     7.9007     8.1995 H       
  31 H31            5.0000     8.7169     6.6689 H       
  32 H32            5.7673     7.1110     6.6474 H       
  33 H33            6.7482    12.0743     7.1932 H       
  34 H34            5.6371    11.0034     6.3062 H       
  35 H35            5.6562    10.9885     8.0860 H       
  36 H36           10.6720     6.8368     7.2149 H       
  37 H37           11.9719     7.4795     6.1826 H       
  38 H38           12.1292     7.5425     7.9545 H       
  39 H39           14.3759     9.2304     6.0847 H       
  40 H40           14.8838     9.7860     7.6977 H       
  41 H41           13.7083     8.4584     7.5430 H       
  42 H42           16.1622    14.2307     8.0119 H       
  43 H43           16.1504    14.2407     6.2320 H       
  44 H44           14.8316    16.3404     6.2526 H       
  45 H45           14.8434    16.3304     8.0325 H       
  46 H46           16.3652    16.5406     7.1336 H       
@<TRIPOS>BOND
   1    1    2 1
   2    3   22 1
   3    3   23 1
   4    4   22 2
   5    5    7 1
   6    5    8 1
   7    5   11 1
   8    6   14 2
   9    6   20 1
  10    7    9 1
  11    7   15 1
  12    7   25 1
  13    8   10 1
  14    8   13 2
  15    9   10 2
  16    9   17 1
  17   10   18 1
  18   11   12 2
  19   11   19 1
  20   12   14 1
  21   12   16 1
  22   13   14 1
  23   13   26 1
  24   15   27 1
  25   15   28 1
  26   15   29 1
  27   16   20 2
  28   16   21 1
  29   17   30 1
  30   17   31 1
  31   17   32 1
  32   18   33 1
  33   18   34 1
  34   18   35 1
  35   19   36 1
  36   19   37 1
  37   19   38 1
  38   20   22 1
  39   21   39 1
  40   21   40 1
  41   21   41 1
  42   23   24 1
  43   23   42 1
  44   23   43 1
  45   24   44 1
  46   24   45 1
  47   24   46 1

#	End of record

#	Name: 11957150
#	Creating user name:	landrgr1
#	Creation time:	28. 01. 2015 13:52

#	Modifying user name:	landrgr1
#	Modification time:	28. 01. 2015 13:52

#	Program:	corina 3.48 0006  22.01.2010

@<TRIPOS>MOLECULE
11957150
  38   39    0    0    0
SMALL
NO_CHARGES


@<TRIPOS>ATOM
   1 I1             0.0000     0.0000     0.0000 I       
   2 H2             0.0000     1.7100     0.0000 H       
   3 S3            14.4784    15.2693     6.0743 S.3     
   4 O4             7.0017     8.3369     6.1051 O.3     
   5 O5            11.3388    11.0984     6.0806 O.2     
   6 N6             7.7368    13.7853     6.1313 N.pl3   
   7 N7            13.3764    12.7504     6.0709 N.pl3   
   8 N8            15.7253    13.1308     6.0509 N.2     
   9 C9             8.4812    11.6644     6.1108 C.ar    
  10 C10            9.6226    12.6005     6.1054 C.2     
  11 C11            7.3290    12.4651     6.1271 C.ar    
  12 C12            9.0804    13.8683     6.1186 C.2     
  13 C13           10.9990    12.2639     6.0905 C.2     
  14 C14            8.3699    10.2770     6.1029 C.ar    
  15 C15            6.0763    11.8594     6.1361 C.ar    
  16 C16           12.0409    13.3526     6.0869 C.3     
  17 C17            7.1174     9.6917     6.1128 C.ar    
  18 C18            5.9749    10.4859     6.1294 C.ar    
  19 C19           14.5016    13.5599     6.0649 C.2     
  20 C20           16.6787    14.0454     6.0467 C.2     
  21 C21           16.2396    15.3043     6.0577 C.2     
  22 C22            5.6780     7.7988     6.1161 C.3     
  23 C23           18.1441    13.6942     6.0313 C.3     
  24 H24            9.6472    14.7876     6.1184 H       
  25 H25            7.1371    14.5478     6.1382 H       
  26 H26            9.2570     9.6611     6.0899 H       
  27 H27            5.1832    12.4666     6.1486 H       
  28 H28           11.9294    13.9653     6.9815 H       
  29 H29           11.9126    13.9755     5.2017 H       
  30 H30            5.0000    10.0212     6.1371 H       
  31 H31           13.4731    11.7853     6.0644 H       
  32 H32           16.8563    16.1909     6.0562 H       
  33 H33            5.1577     8.1321     7.0141 H       
  34 H34            5.1382     8.1438     5.2342 H       
  35 H35            5.7283     6.7100     6.1084 H       
  36 H36           18.4880    13.6152     5.0000 H       
  37 H37           18.7096    14.4721     6.5443 H       
  38 H38           18.2947    12.7412     6.5385 H       
@<TRIPOS>BOND
   1    1    2 1
   2    3   19 1
   3    3   21 1
   4    4   17 1
   5    4   22 1
   6    5   13 2
   7    6   11 1
   8    6   12 1
   9    6   25 1
  10    7   16 1
  11    7   19 1
  12    7   31 1
  13    8   19 2
  14    8   20 1
  15    9   10 1
  16    9   11 ar
  17    9   14 ar
  18   10   12 2
  19   10   13 1
  20   11   15 ar
  21   12   24 1
  22   13   16 1
  23   14   17 ar
  24   14   26 1
  25   15   18 ar
  26   15   27 1
  27   16   28 1
  28   16   29 1
  29   17   18 ar
  30   18   30 1
  31   20   21 2
  32   20   23 1
  33   21   32 1
  34   22   33 1
  35   22   34 1
  36   22   35 1
  37   23   36 1
  38   23   37 1
  39   23   38 1

#	End of record

#	Name: 11948902
#	Creating user name:	landrgr1
#	Creation time:	28. 01. 2015 13:52

#	Modifying user name:	landrgr1
#	Modification time:	28. 01. 2015 13:52

#	Program:	corina 3.48 0006  22.01.2010

@<TRIPOS>MOLECULE
11948902
  31   30    0    0    0
SMALL
NO_CHARGES


@<TRIPOS>ATOM
   1 Cl1            0.0000     0.0000     0.0000 Cl      
   2 H2             0.0000     1.3700     0.0000 H       
   3 O3             8.5988    11.0478     7.0462 O.3     
   4 O4             9.3254    13.8896     7.0542 O.3     
   5 O5            11.4444    13.2196     7.0299 O.2     
   6 N6            10.2925     7.3282     5.6460 N.3     
   7 C7             7.0074     8.5040     8.4903 C.3     
   8 C8             7.4038     8.8148     7.0456 C.3     
   9 C9             8.6169     9.7088     7.0389 C.2     
  10 C10            9.9024     9.2911     7.0243 C.2     
  11 C11            6.5644     9.7926     9.1861 C.3     
  12 C12            5.8545     7.4982     8.4977 C.3     
  13 C13           10.7098    10.4386     7.0228 C.2     
  14 C14           10.3788     7.8615     7.0121 C.3     
  15 C15            9.8654    11.5129     7.0366 C.2     
  16 C16           10.2652    12.9220     7.0399 C.2     
  17 H17            7.8619     8.0811     9.0186 H       
  18 H18            7.6342     7.8858     6.5242 H       
  19 H19            6.5784     9.3186     6.5427 H       
  20 H20            6.2820     9.5712    10.2154 H       
  21 H21            7.3858    10.5092     9.1809 H       
  22 H22            5.7099    10.2155     8.6579 H       
  23 H23            6.1701     6.5801     8.0020 H       
  24 H24            5.5721     7.2768     9.5269 H       
  25 H25            5.0000     7.9211     7.9694 H       
  26 H26           11.7893    10.4673     7.0130 H       
  27 H27            9.7532     7.2643     7.6755 H       
  28 H28           11.4132     7.8203     7.3535 H       
  29 H29           10.8125     7.9029     5.0000 H       
  30 H30           10.6067     6.3700     5.6114 H       
  31 H31            9.6376    14.8048     7.0558 H       
@<TRIPOS>BOND
   1    1    2 1
   2    3    9 1
   3    3   15 1
   4    4   16 1
   5    4   31 1
   6    5   16 2
   7    6   14 1
   8    6   29 1
   9    6   30 1
  10    7    8 1
  11    7   11 1
  12    7   12 1
  13    7   17 1
  14    8    9 1
  15    8   18 1
  16    8   19 1
  17    9   10 2
  18   10   13 1
  19   10   14 1
  20   11   20 1
  21   11   21 1
  22   11   22 1
  23   12   23 1
  24   12   24 1
  25   12   25 1
  26   13   15 2
  27   13   26 1
  28   14   27 1
  29   14   28 1
  30   15   16 1

#	End of record

#	Name: 11948884
#	Creating user name:	landrgr1
#	Creation time:	28. 01. 2015 13:52

#	Modifying user name:	landrgr1
#	Modification time:	28. 01. 2015 13:52

#	Program:	corina 3.48 0006  22.01.2010

@<TRIPOS>MOLECULE
11948884
  33   34    0    0    0
SMALL
NO_CHARGES


@<TRIPOS>ATOM
   1 Br1            0.0000     0.0000     0.0000 Br      
   2 S2            10.0261    12.1886     7.0056 S.3     
   3 O3            13.7777    12.0214     5.6582 O.3     
   4 O4             7.2996    10.0144     5.2785 O.2     
   5 N5            11.1030     9.6769     6.7283 N.pl3   
   6 N6             8.9648     9.6272     7.2674 N.pl3   
   7 N7             5.5241    10.6707     6.4356 N.am    
   8 C8            12.4515    10.1500     6.4004 C.3     
   9 C9            10.0501    10.4211     6.9959 C.cat   
  10 C10           12.4386    11.5944     5.9164 C.3     
  11 C11           10.7459     8.3739     6.8064 C.ar    
  12 C12            9.3762     8.3245     7.1525 C.ar    
  13 C13           11.8142    12.4938     6.9902 C.3     
  14 C14            7.6178    10.0858     7.6159 C.3     
  15 C15           11.4802     7.1991     6.6096 C.ar    
  16 C16            8.7157     7.1128     7.3100 C.ar    
  17 C17           10.8015     6.0036     6.7707 C.ar    
  18 C18            9.4613     5.9605     7.1118 C.ar    
  19 C19            6.8035    10.2540     6.3590 C.2     
  20 H20           13.0793    10.0783     7.2886 H       
  21 H21           12.8703     9.5166     5.6185 H       
  22 H22           11.8526    11.6646     5.0000 H       
  23 H23           12.0075    13.5399     6.7527 H       
  24 H24           12.2377    12.2522     7.9650 H       
  25 H25            7.1396     9.3503     8.2629 H       
  26 H26            7.6827    11.0408     8.1373 H       
  27 H27           12.5268     7.2241     6.3442 H       
  28 H28            7.6696     7.0700     7.5750 H       
  29 H29           11.3351     5.0756     6.6272 H       
  30 H30            8.9808     5.0000     7.2258 H       
  31 H31           13.8462    12.9339     5.3458 H       
  32 H32            5.0000    10.7790     5.6266 H       
  33 H33            5.1274    10.8623     7.2998 H       
@<TRIPOS>BOND
   1    2    9 1
   2    2   13 1
   3    3   10 1
   4    3   31 1
   5    4   19 2
   6    5    8 1
   7    5    9 ar
   8    5   11 1
   9    6    9 ar
  10    6   12 1
  11    6   14 1
  12    7   19 am
  13    7   32 1
  14    7   33 1
  15    8   10 1
  16    8   20 1
  17    8   21 1
  18   10   13 1
  19   10   22 1
  20   11   12 ar
  21   11   15 ar
  22   12   16 ar
  23   13   23 1
  24   13   24 1
  25   14   19 1
  26   14   25 1
  27   14   26 1
  28   15   17 ar
  29   15   27 1
  30   16   18 ar
  31   16   28 1
  32   17   18 ar
  33   17   29 1
  34   18   30 1

#	End of record

#	Name: 11948857
#	Creating user name:	landrgr1
#	Creation time:	28. 01. 2015 13:52

#	Modifying user name:	landrgr1
#	Modification time:	28. 01. 2015 13:52

#	Program:	corina 3.48 0006  22.01.2010

@<TRIPOS>MOLECULE
11948857
  68   67    0    0    0
SMALL
NO_CHARGES


@<TRIPOS>ATOM
   1 S1            -0.0225     1.8097     0.0120 S.3     
   2 O2             4.9382     0.5823    -0.0309 O.3     
   3 O3             1.1397     4.5511     0.0151 O.3     
   4 N4             7.7840     3.6053    -1.4893 N.3     
   5 C5            -1.4126    -2.0635     0.0045 C.3     
   6 C6            -2.8479    -2.5931     0.0153 C.3     
   7 C7            -1.4333    -0.5336     0.0129 C.3     
   8 C8            -2.8272    -4.1229     0.0069 C.3     
   9 C9             0.0021    -0.0041     0.0020 C.3     
  10 C10           -4.2626    -4.6525     0.0178 C.3     
  11 C11            5.8442     3.2543    -0.0362 C.3     
  12 C12            4.3808     2.8947    -0.0242 C.ar    
  13 C13            6.3574     3.2549    -1.4776 C.3     
  14 C14            1.6887     2.2294    -0.0021 C.ar    
  15 C15            3.9954     1.5622    -0.0219 C.ar    
  16 C16           -4.2418    -6.1823     0.0094 C.3     
  17 C17            3.4249     3.8939    -0.0097 C.ar    
  18 C18            2.0795     3.5670     0.0014 C.ar    
  19 C19            2.6500     1.2286    -0.0108 C.ar    
  20 C20            8.3687     3.3872    -2.8191 C.3     
  21 C21            7.9895     4.9902    -1.0446 C.3     
  22 C22            4.4705    -0.7680    -0.0279 C.3     
  23 C23            1.6123     5.8996     0.0179 C.3     
  24 H24           -0.8854    -2.4246     0.8875 H       
  25 H25           -0.9024    -2.4150    -0.8923 H       
  26 H26           -3.3581    -2.2415     0.9121 H       
  27 H27           -3.3751    -2.2320    -0.8677 H       
  28 H28           -1.9605    -0.1726    -0.8702 H       
  29 H29           -1.9435    -0.1821     0.9097 H       
  30 H30           -2.3170    -4.4744    -0.8899 H       
  31 H31           -2.3000    -4.4840     0.8900 H       
  32 H32            0.5123    -0.3556    -0.8948 H       
  33 H33            0.5293    -0.3651     0.8851 H       
  34 H34           -4.7728    -4.3010     0.9146 H       
  35 H35           -4.7898    -4.2914    -0.8653 H       
  36 H36            5.9785     4.2451     0.3977 H       
  37 H37            6.4028     2.5230     0.5481 H       
  38 H38            5.7988     3.9861    -2.0618 H       
  39 H39            6.2231     2.2640    -1.9115 H       
  40 H40            3.7281     4.9305    -0.0067 H       
  41 H41           -3.7316    -6.5338    -0.8874 H       
  42 H42           -3.7146    -6.5434     0.8924 H       
  43 H43           -5.2644    -6.5596     0.0171 H       
  44 H44            2.3502     0.1911    -0.0136 H       
  45 H45            7.8504     4.0076    -3.5502 H       
  46 H46            9.4253     3.6544    -2.7997 H       
  47 H47            8.2644     2.3376    -3.0941 H       
  48 H48            7.6095     5.1061    -0.0296 H       
  49 H49            9.0541     5.2235    -1.0628 H       
  50 H50            7.4574     5.6687    -1.7114 H       
  51 H51            5.3226    -1.4476    -0.0360 H       
  52 H52            3.8739    -0.9438     0.8672 H       
  53 H53            3.8583    -0.9424    -0.9127 H       
  54 H54            0.7628     6.5824     0.0293 H       
  55 H55            2.2256     6.0679     0.9032 H       
  56 H56            2.2093     6.0773    -0.8767 H       
  57 O57           20.4404    12.4898     6.9606 O.3     
  58 O58           15.0270    13.3128     6.3261 O.3     
  59 O59           18.4906    11.7663     6.1848 O.2     
  60 O60           16.6696    12.2140     7.3368 O.2     
  61 C61           18.5944    14.0569     6.6170 C.2     
  62 C62           17.2882    14.2440     6.3667 C.2     
  63 C63           19.1670    12.6977     6.5720 C.2     
  64 C64           16.3131    13.1908     6.7094 C.2     
  65 H65           19.2256    14.9014     6.8512 H       
  66 H66           16.9515    15.1652     5.9146 H       
  67 H67           20.7713    11.5824     6.9134 H       
  68 H68           14.4253    12.5974     6.5737 H       
@<TRIPOS>BOND
   1    1    9 1
   2    1   14 1
   3    2   15 1
   4    2   22 1
   5    3   18 1
   6    3   23 1
   7    4   13 1
   8    4   20 1
   9    4   21 1
  10    5    6 1
  11    5    7 1
  12    5   24 1
  13    5   25 1
  14    6    8 1
  15    6   26 1
  16    6   27 1
  17    7    9 1
  18    7   28 1
  19    7   29 1
  20    8   10 1
  21    8   30 1
  22    8   31 1
  23    9   32 1
  24    9   33 1
  25   10   16 1
  26   10   34 1
  27   10   35 1
  28   11   12 1
  29   11   13 1
  30   11   36 1
  31   11   37 1
  32   12   15 ar
  33   12   17 ar
  34   13   38 1
  35   13   39 1
  36   14   18 ar
  37   14   19 ar
  38   15   19 ar
  39   16   41 1
  40   16   42 1
  41   16   43 1
  42   17   18 ar
  43   17   40 1
  44   19   44 1
  45   20   45 1
  46   20   46 1
  47   20   47 1
  48   21   48 1
  49   21   49 1
  50   21   50 1
  51   22   51 1
  52   22   52 1
  53   22   53 1
  54   23   54 1
  55   23   55 1
  56   23   56 1
  57   57   63 1
  58   57   67 1
  59   58   64 1
  60   58   68 1
  61   59   63 2
  62   60   64 2
  63   61   62 2
  64   61   63 1
  65   61   65 1
  66   62   64 1
  67   62   66 1

#	End of record

#	Name: 11948840
#	Creating user name:	landrgr1
#	Creation time:	28. 01. 2015 13:52

#	Modifying user name:	landrgr1
#	Modification time:	28. 01. 2015 13:52

#	Program:	corina 3.48 0006  22.01.2010

@<TRIPOS>MOLECULE
11948840
  37   39    0    0    0
SMALL
NO_CHARGES


@<TRIPOS>ATOM
   1 S1             0.0452     1.7319     0.0965 S.3     
   2 O2             3.5710    -0.6849     0.0418 O.2     
   3 N3             1.9930     3.4735    -0.1751 N.pl3   
   4 N4             2.6754     1.2966    -0.0652 N.2     
   5 C5             0.1099    -0.0653    -0.0355 C.3     
   6 C6             1.3225    -0.6268     0.6902 C.3     
   7 C7            -1.1412    -0.6502     0.5675 C.ar    
   8 C8             1.6864     2.1483    -0.0552 C.2     
   9 C9             2.5879     0.0123     0.2000 C.2     
  10 C10           -1.9887    -1.4184    -0.2088 C.ar    
  11 C11           -1.4385    -0.4232     1.8983 C.ar    
  12 C12            3.3299     3.8845    -0.1775 C.ar    
  13 C13            3.6973     5.0545    -0.8299 C.ar    
  14 C14           -3.1364    -1.9549     0.3443 C.ar    
  15 C15           -2.5861    -0.9598     2.4514 C.ar    
  16 C16            4.2920     3.1268     0.4773 C.ar    
  17 C17           -3.4363    -1.7236     1.6738 C.ar    
  18 C18            5.0180     5.4577    -0.8300 C.ar    
  19 C19            2.6557     5.8826    -1.5374 C.3     
  20 C20            5.6114     3.5358     0.4735 C.ar    
  21 C21            5.9746     4.6978    -0.1817 C.ar    
  22 H22            0.1624    -0.3446    -1.0878 H       
  23 H23            1.2181    -0.4399     1.7590 H       
  24 H24            1.3754    -1.7021     0.5195 H       
  25 H25           -1.7544    -1.5991    -1.2474 H       
  26 H26           -0.7739     0.1730     2.5059 H       
  27 H27            1.2837     4.1298    -0.2587 H       
  28 H28           -3.7989    -2.5545    -0.2623 H       
  29 H29           -2.8182    -0.7827     3.4912 H       
  30 H30            4.0089     2.2190     0.9893 H       
  31 H31           -4.3331    -2.1424     2.1058 H       
  32 H32            5.3042     6.3673    -1.3371 H       
  33 H33            2.2416     6.6150    -0.8444 H       
  34 H34            3.1136     6.3990    -2.3811 H       
  35 H35            1.8586     5.2327    -1.8984 H       
  36 H36            6.3600     2.9472     0.9829 H       
  37 H37            7.0070     5.0150    -0.1838 H       
@<TRIPOS>BOND
   1    1    5 1
   2    1    8 1
   3    2    9 2
   4    3    8 1
   5    3   12 1
   6    3   27 1
   7    4    8 2
   8    4    9 1
   9    5    6 1
  10    5    7 1
  11    5   22 1
  12    6    9 1
  13    6   23 1
  14    6   24 1
  15    7   10 ar
  16    7   11 ar
  17   10   14 ar
  18   10   25 1
  19   11   15 ar
  20   11   26 1
  21   12   13 ar
  22   12   16 ar
  23   13   18 ar
  24   13   19 1
  25   14   17 ar
  26   14   28 1
  27   15   17 ar
  28   15   29 1
  29   16   20 ar
  30   16   30 1
  31   17   31 1
  32   18   21 ar
  33   18   32 1
  34   19   33 1
  35   19   34 1
  36   19   35 1
  37   20   21 ar
  38   20   36 1
  39   21   37 1

#	End of record

#	Name: 11842307
#	Creating user name:	landrgr1
#	Creation time:	28. 01. 2015 13:52

#	Modifying user name:	landrgr1
#	Modification time:	28. 01. 2015 13:52

#	Program:	corina 3.48 0006  22.01.2010

@<TRIPOS>MOLECULE
11842307
  29   30    0    0    0
SMALL
NO_CHARGES


@<TRIPOS>ATOM
   1 S1            -0.1904     1.9161    -0.4521 S.3     
   2 S2            -7.5227     2.1902     0.7528 S.2     
   3 O3            -0.9828    -1.9582    -0.1086 O.2     
   4 N4            -5.4274     0.5511     0.1170 N.am    
   5 N5            -2.4468    -0.2866    -0.1197 N.am    
   6 N6            -5.2345    -0.7608     1.8344 N.2     
   7 N7            -6.2944     0.1271     2.0650 N.am    
   8 C8            -3.5713    -1.2132     0.0331 C.3     
   9 C9            -4.7313    -0.4942     0.6723 C.2     
  10 C10           -3.9910    -1.7370    -1.3418 C.3     
  11 C11           -6.3895     0.9278     0.9830 C.2     
  12 C12           -5.1653     1.1576    -1.1906 C.3     
  13 C13           -1.1866    -0.7605    -0.1806 C.2     
  14 C14           -0.0615     0.1665    -0.3335 C.2     
  15 C15            1.2554    -0.1905    -0.4072 C.2     
  16 C16            2.1025     0.8827    -0.5502 C.2     
  17 C17            1.5023     2.0780    -0.5924 C.2     
  18 H18           -3.2699    -2.0493     0.6640 H       
  19 H19           -4.1878    -0.8959    -2.0065 H       
  20 H20           -3.1903    -2.3489    -1.7574 H       
  21 H21           -4.8937    -2.3395    -1.2410 H       
  22 H22           -2.6093     0.6680    -0.1771 H       
  23 H23           -5.6810     0.5893    -1.9646 H       
  24 H24           -5.5267     2.1859    -1.1931 H       
  25 H25           -4.0931     1.1488    -1.3868 H       
  26 H26           -6.8553     0.1598     2.8557 H       
  27 H27            1.5968    -1.2139    -0.3577 H       
  28 H28            3.1741     0.7695    -0.6229 H       
  29 H29            2.0202     3.0195    -0.7011 H       
@<TRIPOS>BOND
   1    1   14 1
   2    1   17 1
   3    2   11 2
   4    3   13 2
   5    4    9 1
   6    4   11 am
   7    4   12 1
   8    5    8 1
   9    5   13 am
  10    5   22 1
  11    6    7 1
  12    6    9 2
  13    7   11 am
  14    7   26 1
  15    8    9 1
  16    8   10 1
  17    8   18 1
  18   10   19 1
  19   10   20 1
  20   10   21 1
  21   12   23 1
  22   12   24 1
  23   12   25 1
  24   13   14 1
  25   14   15 2
  26   15   16 1
  27   15   27 1
  28   16   17 2
  29   16   28 1
  30   17   29 1

#	End of record

#	Name: 11842277
#	Creating user name:	landrgr1
#	Creation time:	28. 01. 2015 13:52

#	Modifying user name:	landrgr1
#	Modification time:	28. 01. 2015 13:52

#	Program:	corina 3.48 0006  22.01.2010

@<TRIPOS>MOLECULE
11842277
  44   45    0    0    0
SMALL
NO_CHARGES


@<TRIPOS>ATOM
   1 O1             0.2554     4.1297     0.6506 O.2     
   2 O2             3.7630     6.0860     0.6128 O.2     
   3 N3            -0.0179     1.4676     0.0101 N.pl3   
   4 N4             2.3374     0.1676    -0.6680 N.pl3   
   5 N5             3.5456     2.2024    -0.3415 N.pl3   
   6 N6             4.7563     4.2053    -0.0173 N.am    
   7 N7             2.4583     4.1569     0.3214 N.2     
   8 C8             0.0021    -0.0041     0.0020 C.3     
   9 C9             1.0541    -0.4565    -1.0219 C.3     
  10 C10            1.2126     2.1584     0.0021 C.2     
  11 C11            2.3650     1.5072    -0.3365 C.2     
  12 C12            0.3750    -0.5243     1.3917 C.3     
  13 C13            0.6337    -0.0128    -2.4244 C.3     
  14 C14           -1.2871     2.1992     0.0202 C.3     
  15 C15            1.2726     3.5248     0.3411 C.2     
  16 C16            6.0955     6.2606     0.3005 C.3     
  17 C17            3.5599     3.5208    -0.0084 C.2     
  18 C18            4.7875     5.5123     0.3103 C.2     
  19 C19            5.8538     7.7156     0.7075 C.3     
  20 C20            7.0635     5.6085     1.2898 C.3     
  21 C21            6.6973     6.2175    -1.1055 C.3     
  22 H22           -0.9785    -0.3846    -0.2841 H       
  23 H23            1.1526    -1.5417    -0.9929 H       
  24 H24            3.1542    -0.3555    -0.6673 H       
  25 H25           -0.3595    -0.1776     2.1186 H       
  26 H26            0.3883    -1.6142     1.3801 H       
  27 H27            1.3618    -0.1518     1.6664 H       
  28 H28            1.3935    -0.3162    -3.1446 H       
  29 H29           -0.3178    -0.4776    -2.6826 H       
  30 H30            0.5258     1.0717    -2.4453 H       
  31 H31           -1.5970     2.3750     1.0503 H       
  32 H32           -1.1599     3.1545    -0.4891 H       
  33 H33           -2.0488     1.6123    -0.4932 H       
  34 H34            4.3714     1.7541    -0.5823 H       
  35 H35            5.5759     3.7463    -0.2593 H       
  36 H36            5.4250     7.7463     1.7091 H       
  37 H37            6.7999     8.2568     0.7004 H       
  38 H38            5.1641     8.1802     0.0027 H       
  39 H39            7.2357     4.5720     0.9999 H       
  40 H40            8.0096     6.1497     1.2828 H       
  41 H41            6.6348     5.6392     2.2915 H       
  42 H42            6.0077     6.6821    -1.8102 H       
  43 H43            7.6434     6.7588    -1.1125 H       
  44 H44            6.8695     5.1810    -1.3954 H       
@<TRIPOS>BOND
   1    1   15 2
   2    2   18 2
   3    3    8 1
   4    3   10 1
   5    3   14 1
   6    4    9 1
   7    4   11 1
   8    4   24 1
   9    5   11 1
  10    5   17 1
  11    5   34 1
  12    6   17 1
  13    6   18 am
  14    6   35 1
  15    7   15 1
  16    7   17 2
  17    8    9 1
  18    8   12 1
  19    8   22 1
  20    9   13 1
  21    9   23 1
  22   10   11 2
  23   10   15 1
  24   12   25 1
  25   12   26 1
  26   12   27 1
  27   13   28 1
  28   13   29 1
  29   13   30 1
  30   14   31 1
  31   14   32 1
  32   14   33 1
  33   16   18 1
  34   16   19 1
  35   16   20 1
  36   16   21 1
  37   19   36 1
  38   19   37 1
  39   19   38 1
  40   20   39 1
  41   20   40 1
  42   20   41 1
  43   21   42 1
  44   21   43 1
  45   21   44 1

#	End of record

#	Name: 11842087
#	Creating user name:	landrgr1
#	Creation time:	28. 01. 2015 13:52

#	Modifying user name:	landrgr1
#	Modification time:	28. 01. 2015 13:52

#	Program:	corina 3.48 0006  22.01.2010

@<TRIPOS>MOLECULE
11842087
  39   40    0    0    0
SMALL
NO_CHARGES


@<TRIPOS>ATOM
   1 O1            -0.8269     1.0435    -0.0872 O.3     
   2 O2             3.1870    -0.5926    -1.4891 O.2     
   3 N3             1.1681    -0.0029    -0.7833 N.am    
   4 C4             1.4504     1.4102    -0.4472 C.3     
   5 C5            -0.2676    -0.2046    -0.5290 C.3     
   6 C6             0.2751     1.7797     0.4921 C.3     
   7 C7             2.7888     1.5368     0.2834 C.3     
   8 C8            -0.4553    -1.2671     0.5557 C.3     
   9 C9            -0.9616    -0.6544    -1.8162 C.3     
  10 C10            2.0478    -0.9199    -1.2325 C.2     
  11 C11            3.0824     2.9915     0.5454 C.ar    
  12 C12            1.6157    -2.3520    -1.4157 C.3     
  13 C13            2.7611     3.5523     1.7673 C.ar    
  14 C14            3.6784     3.7636    -0.4342 C.ar    
  15 C15            2.7960    -3.1790    -1.9295 C.3     
  16 C16            3.0304     4.8867     2.0076 C.ar    
  17 C17            3.9477     5.0980    -0.1939 C.ar    
  18 C18            3.6216     5.6602     1.0262 C.ar    
  19 H19            1.4383     2.0304    -1.3435 H       
  20 H20            0.0809     2.8520     0.4666 H       
  21 H21            0.4725     1.4446     1.5103 H       
  22 H22            2.7377     1.0001     1.2308 H       
  23 H23            3.5808     1.1115    -0.3329 H       
  24 H24           -1.4926    -1.2652     0.8905 H       
  25 H25           -0.2060    -2.2479     0.1507 H       
  26 H26            0.1990    -1.0452     1.3988 H       
  27 H27           -0.6985     0.0247    -2.6272 H       
  28 H28           -0.6391    -1.6644    -2.0690 H       
  29 H29           -2.0416    -0.6439    -1.6694 H       
  30 H30            1.2782    -2.7547    -0.4607 H       
  31 H31            0.7999    -2.3959    -2.1373 H       
  32 H32            2.2992     2.9481     2.5341 H       
  33 H33            3.9338     3.3243    -1.3871 H       
  34 H34            2.4835    -4.2148    -2.0620 H       
  35 H35            3.1335    -2.7763    -2.8845 H       
  36 H36            3.6118    -3.1351    -1.2079 H       
  37 H37            2.7787     5.3251     2.9620 H       
  38 H38            4.4136     5.7012    -0.9591 H       
  39 H39            3.8317     6.7028     1.2138 H       
@<TRIPOS>BOND
   1    1    5 1
   2    1    6 1
   3    2   10 2
   4    3    4 1
   5    3    5 1
   6    3   10 am
   7    4    6 1
   8    4    7 1
   9    4   19 1
  10    5    8 1
  11    5    9 1
  12    6   20 1
  13    6   21 1
  14    7   11 1
  15    7   22 1
  16    7   23 1
  17    8   24 1
  18    8   25 1
  19    8   26 1
  20    9   27 1
  21    9   28 1
  22    9   29 1
  23   10   12 1
  24   11   13 ar
  25   11   14 ar
  26   12   15 1
  27   12   30 1
  28   12   31 1
  29   13   16 ar
  30   13   32 1
  31   14   17 ar
  32   14   33 1
  33   15   34 1
  34   15   35 1
  35   15   36 1
  36   16   18 ar
  37   16   37 1
  38   17   18 ar
  39   17   38 1
  40   18   39 1

#	End of record

#	Name: 11841101
#	Creating user name:	landrgr1
#	Creation time:	28. 01. 2015 13:52

#	Modifying user name:	landrgr1
#	Modification time:	28. 01. 2015 13:52

#	Program:	corina 3.48 0006  22.01.2010

@<TRIPOS>MOLECULE
11841101
  53   57    0    0    0
SMALL
NO_CHARGES


@<TRIPOS>ATOM
   1 S1             0.0697     1.7852    -0.5948 S.3     
   2 O2            -0.8645    -1.9620    -1.2585 O.2     
   3 N3            -2.1835    -0.1781    -1.3998 N.am    
   4 N4            -2.4566     1.1858    -1.3176 N.2     
   5 N5             2.5246     2.9196     0.1690 N.ar    
   6 N6             1.6719    -1.7906    -0.5802 N.pl3   
   7 C7            -3.4092    -0.8853    -1.8035 C.3     
   8 C8            -4.4472     0.2450    -1.9497 C.3     
   9 C9            -3.6735     1.4971    -1.6037 C.2     
  10 C10           -3.2052    -1.5914    -3.1191 C.ar    
  11 C11           -0.9901    -0.7548    -1.1551 C.2     
  12 C12           -4.2269     2.8640    -1.5944 C.ar    
  13 C13            0.1181     0.0431    -0.7778 C.2     
  14 C14           -3.7605    -2.8401    -3.3267 C.ar    
  15 C15           -2.4674    -0.9879    -4.1203 C.ar    
  16 C16            1.3570    -0.4406    -0.5108 C.2     
  17 C17            2.3252     0.5794    -0.1453 C.ar    
  18 C18            1.7692     1.8632    -0.1454 C.ar    
  19 C19            3.6908     0.4373     0.1920 C.ar    
  20 C20           -3.4133     3.9482    -1.2566 C.ar    
  21 C21           -5.5656     3.0814    -1.9289 C.ar    
  22 C22           -3.5733    -3.4879    -4.5335 C.ar    
  23 C23           -2.2802    -1.6356    -5.3271 C.ar    
  24 C24           -2.8311    -2.8867    -5.5328 C.ar    
  25 C25            4.4159     1.5643     0.5058 C.ar    
  26 C26            3.7933     2.8038     0.4836 C.ar    
  27 C27            4.3401    -0.9226     0.2083 C.3     
  28 C28           -3.9376     5.2240    -1.2504 C.ar    
  29 C29           -6.0763     4.3627    -1.9185 C.ar    
  30 C30           -5.2660     5.4312    -1.5773 C.ar    
  31 C31            4.5871     4.0378     0.8274 C.3     
  32 H32           -3.7167    -1.5910    -1.0318 H       
  33 H33           -4.8167     0.2946    -2.9740 H       
  34 H34           -5.2716     0.0997    -1.2515 H       
  35 H35           -4.3403    -3.3099    -2.5460 H       
  36 H36           -2.0375    -0.0102    -3.9598 H       
  37 H37           -2.3765     3.7878    -1.0005 H       
  38 H38           -6.1992     2.2484    -2.1954 H       
  39 H39           -4.0066    -4.4638    -4.6954 H       
  40 H40           -1.7041    -1.1640    -6.1094 H       
  41 H41           -2.6846    -3.3929    -6.4755 H       
  42 H42            5.4606     1.4843     0.7675 H       
  43 H43            2.5936    -2.0681    -0.7000 H       
  44 H44            0.9703    -2.4566    -0.5090 H       
  45 H45            4.6539    -1.1875    -0.8014 H       
  46 H46            5.2095    -0.9023     0.8654 H       
  47 H47            3.6265    -1.6616     0.5726 H       
  48 H48           -3.3098     6.0631    -0.9894 H       
  49 H49           -7.1111     4.5323    -2.1770 H       
  50 H50           -5.6714     6.4323    -1.5702 H       
  51 H51            4.5230     4.2240     1.8995 H       
  52 H52            5.6296     3.8894     0.5461 H       
  53 H53            4.1826     4.8927     0.2854 H       
@<TRIPOS>BOND
   1    1   13 1
   2    1   18 1
   3    2   11 2
   4    3    4 1
   5    3    7 1
   6    3   11 am
   7    4    9 2
   8    5   18 ar
   9    5   26 ar
  10    6   16 1
  11    6   43 1
  12    6   44 1
  13    7    8 1
  14    7   10 1
  15    7   32 1
  16    8    9 1
  17    8   33 1
  18    8   34 1
  19    9   12 1
  20   10   14 ar
  21   10   15 ar
  22   11   13 1
  23   12   20 ar
  24   12   21 ar
  25   13   16 2
  26   14   22 ar
  27   14   35 1
  28   15   23 ar
  29   15   36 1
  30   16   17 1
  31   17   18 ar
  32   17   19 ar
  33   19   25 ar
  34   19   27 1
  35   20   28 ar
  36   20   37 1
  37   21   29 ar
  38   21   38 1
  39   22   24 ar
  40   22   39 1
  41   23   24 ar
  42   23   40 1
  43   24   41 1
  44   25   26 ar
  45   25   42 1
  46   26   31 1
  47   27   45 1
  48   27   46 1
  49   27   47 1
  50   28   30 ar
  51   28   48 1
  52   29   30 ar
  53   29   49 1
  54   30   50 1
  55   31   51 1
  56   31   52 1
  57   31   53 1

#	End of record

#	Name: 11841096
#	Creating user name:	landrgr1
#	Creation time:	28. 01. 2015 13:52

#	Modifying user name:	landrgr1
#	Modification time:	28. 01. 2015 13:52

#	Program:	corina 3.48 0006  22.01.2010

@<TRIPOS>MOLECULE
11841096
  53   57    0    0    0
SMALL
NO_CHARGES


@<TRIPOS>ATOM
   1 S1             0.2692     1.7668     0.0698 S.3     
   2 O2            -2.9419    -1.8438     2.7680 O.3     
   3 O3            -0.8091    -6.5350     0.2867 O.3     
   4 O4            -2.1066     0.3012     0.2083 O.2     
   5 N5            -1.4818    -1.8279     0.2182 N.am    
   6 N6            -0.5404    -2.8548     0.1935 N.2     
   7 N7             2.6437     3.2371    -0.0686 N.pl3   
   8 N8             2.9388     1.0995    -0.0423 N.2     
   9 N9             4.1027     1.6406    -0.1063 N.2     
  10 N10            7.1426     5.7366    -0.3243 N.ar    
  11 C11           -2.8277    -2.4171     0.2981 C.3     
  12 C12           -2.5588    -3.9348     0.3176 C.3     
  13 C13           -1.0522    -4.0394     0.2447 C.2     
  14 C14           -3.5210    -1.9853     1.5646 C.2     
  15 C15           -1.2044    -0.5095     0.1809 C.2     
  16 C16           -0.2903    -5.2918     0.2339 C.2     
  17 C17           -4.8251    -1.6767     1.6815 C.2     
  18 C18            0.2263    -0.0423     0.1052 C.3     
  19 C19           -5.0440    -1.3290     3.0343 C.2     
  20 C20            1.0684    -5.4032     0.1685 C.2     
  21 C21           -3.8607    -1.4460     3.6631 C.2     
  22 C22            2.0093     2.0300    -0.0166 C.2     
  23 C23            1.3627    -6.7790     0.1836 C.2     
  24 C24            0.1867    -7.4353     0.2565 C.2     
  25 C25            3.9881     2.9484    -0.1255 C.2     
  26 C26            2.0226     4.5640    -0.0700 C.3     
  27 C27            5.0942     3.9259    -0.1951 C.ar    
  28 C28            1.7340     4.9850     1.3479 C.2     
  29 C29            4.8981     5.2621     0.1754 C.ar    
  30 C30            6.3674     3.5421    -0.6338 C.ar    
  31 C31            5.9580     6.1404     0.0944 C.ar    
  32 C32            7.3702     4.4873    -0.6833 C.ar    
  33 C33            2.1662     6.1403     1.7890 C.2     
  34 H34           -3.4185    -2.1436    -0.5760 H       
  35 H35           -2.9283    -4.3767     1.2430 H       
  36 H36           -3.0176    -4.4154    -0.5464 H       
  37 H37           -5.5631    -1.6912     0.8931 H       
  38 H38            0.6892    -0.4345    -0.8004 H       
  39 H39            0.7725    -0.4017     0.9773 H       
  40 H40           -5.9814    -1.0271     3.4776 H       
  41 H41            1.7798    -4.5924     0.1151 H       
  42 H42           -3.6801    -1.2528     4.7103 H       
  43 H43            2.3453    -7.2254     0.1443 H       
  44 H44            0.0658    -8.5081     0.2861 H       
  45 H45            2.7006     5.2820    -0.5314 H       
  46 H46            1.0913     4.5286    -0.6352 H       
  47 H47            1.1709     4.3342     2.0004 H       
  48 H48            3.9317     5.5994     0.5197 H       
  49 H49            6.5612     2.5213    -0.9284 H       
  50 H50            5.8170     7.1729     0.3782 H       
  51 H51            8.3557     4.2010    -1.0199 H       
  52 H52            2.7812     6.7638     1.1570 H       
  53 H53            1.9074     6.4694     2.7845 H       
@<TRIPOS>BOND
   1    1   18 1
   2    1   22 1
   3    2   14 1
   4    2   21 1
   5    3   16 1
   6    3   24 1
   7    4   15 2
   8    5    6 1
   9    5   11 1
  10    5   15 am
  11    6   13 2
  12    7   22 1
  13    7   25 1
  14    7   26 1
  15    8    9 1
  16    8   22 2
  17    9   25 2
  18   10   31 ar
  19   10   32 ar
  20   11   12 1
  21   11   14 1
  22   11   34 1
  23   12   13 1
  24   12   35 1
  25   12   36 1
  26   13   16 1
  27   14   17 2
  28   15   18 1
  29   16   20 2
  30   17   19 1
  31   17   37 1
  32   18   38 1
  33   18   39 1
  34   19   21 2
  35   19   40 1
  36   20   23 1
  37   20   41 1
  38   21   42 1
  39   23   24 2
  40   23   43 1
  41   24   44 1
  42   25   27 1
  43   26   28 1
  44   26   45 1
  45   26   46 1
  46   27   29 ar
  47   27   30 ar
  48   28   33 2
  49   28   47 1
  50   29   31 ar
  51   29   48 1
  52   30   32 ar
  53   30   49 1
  54   31   50 1
  55   32   51 1
  56   33   52 1
  57   33   53 1

#	End of record

#	Name: 11840890
#	Creating user name:	landrgr1
#	Creation time:	28. 01. 2015 13:52

#	Modifying user name:	landrgr1
#	Modification time:	28. 01. 2015 13:52

#	Program:	corina 3.48 0006  22.01.2010

@<TRIPOS>MOLECULE
11840890
  42   44    0    0    0
SMALL
NO_CHARGES


@<TRIPOS>ATOM
   1 O1             2.0092    -2.0598     1.5289 O.3     
   2 O2             7.0939     0.1259    -8.2381 O.3     
   3 O3             4.7897     0.6920    -1.4613 O.2     
   4 O4             8.8031    -1.3488    -8.2481 O.2     
   5 N5             2.6862    -0.7617    -0.8678 N.3     
   6 N6             4.7750     0.4430    -3.6659 N.am    
   7 N7             8.1655    -1.7384    -5.4087 N.2     
   8 C8             6.4077    -0.0402    -5.9462 C.3     
   9 C9             3.7083    -1.4694    -0.0830 C.3     
  10 C10            1.3710    -1.3978    -0.7045 C.3     
  11 C11            3.0653    -0.6927    -2.2854 C.3     
  12 C12            6.7811     0.9784    -4.9002 C.ar    
  13 C13            3.3032    -1.4661     1.3934 C.3     
  14 C14            0.9894    -1.3952     0.7781 C.3     
  15 C15            6.1273     0.6482    -7.2919 C.3     
  16 C16            5.9553     1.1821    -3.8022 C.ar    
  17 C17            7.5787    -0.9568    -6.2359 C.2     
  18 C18            4.2717     0.1971    -2.4400 C.2     
  19 C19            7.9476     1.7060    -5.0294 C.ar    
  20 C20            7.9091    -0.7679    -7.6680 C.2     
  21 C21            6.3031     2.1212    -2.8404 C.ar    
  22 C22            8.2912     2.6407    -4.0696 C.ar    
  23 C23            7.4687     2.8496    -2.9782 C.ar    
  24 H24            5.5402    -0.6162    -5.6241 H       
  25 H25            3.7905    -2.4976    -0.4356 H       
  26 H26            4.6685    -0.9666    -0.1982 H       
  27 H27            0.6250    -0.8427    -1.2733 H       
  28 H28            1.4159    -2.4248    -1.0670 H       
  29 H29            3.3029    -1.6931    -2.6471 H       
  30 H30            2.2363    -0.2846    -2.8637 H       
  31 H31            3.2731    -0.4401     1.7602 H       
  32 H32            4.0287    -2.0388     1.9711 H       
  33 H33            0.0414    -1.9167     0.9109 H       
  34 H34            0.8920    -0.3672     1.1271 H       
  35 H35            6.2490     1.7267    -7.1915 H       
  36 H36            5.1159     0.4163    -7.6257 H       
  37 H37            4.3191     0.1075    -4.4536 H       
  38 H38            8.5922     1.5452    -5.8809 H       
  39 H39            5.6629     2.2822    -1.9857 H       
  40 H40            9.2044     3.2080    -4.1726 H       
  41 H41            7.7398     3.5802    -2.2304 H       
  42 H42            8.9107    -2.2851    -5.7032 H       
@<TRIPOS>BOND
   1    1   13 1
   2    1   14 1
   3    2   15 1
   4    2   20 1
   5    3   18 2
   6    4   20 2
   7    5    9 1
   8    5   10 1
   9    5   11 1
  10    6   16 1
  11    6   18 am
  12    6   37 1
  13    7   17 2
  14    7   42 1
  15    8   12 1
  16    8   15 1
  17    8   17 1
  18    8   24 1
  19    9   13 1
  20    9   25 1
  21    9   26 1
  22   10   14 1
  23   10   27 1
  24   10   28 1
  25   11   18 1
  26   11   29 1
  27   11   30 1
  28   12   16 ar
  29   12   19 ar
  30   13   31 1
  31   13   32 1
  32   14   33 1
  33   14   34 1
  34   15   35 1
  35   15   36 1
  36   16   21 ar
  37   17   20 1
  38   19   22 ar
  39   19   38 1
  40   21   23 ar
  41   21   39 1
  42   22   23 ar
  43   22   40 1
  44   23   41 1

#	End of record

#	Name: 11836235
#	Creating user name:	landrgr1
#	Creation time:	28. 01. 2015 13:52

#	Modifying user name:	landrgr1
#	Modification time:	28. 01. 2015 13:52

#	Program:	corina 3.48 0006  22.01.2010

@<TRIPOS>MOLECULE
11836235
  43   43    0    0    0
SMALL
NO_CHARGES


@<TRIPOS>ATOM
   1 S1            -0.0172     1.4168     0.0098 S.o     
   2 O2             0.0021    -0.0041     0.0020 O.2     
   3 O3            -2.1998     0.1400    -1.6812 O.3     
   4 O4            -4.0958     1.7544    -3.1160 O.3     
   5 C5             4.5178     0.0242     4.6105 C.3     
   6 C6             3.7789     0.5511     3.4074 C.ar    
   7 C7             1.6846     2.0446    -0.0030 C.3     
   8 C8             2.4236     1.5177     1.2000 C.ar    
   9 C9             3.8126     0.4893     5.8861 C.3     
  10 C10            4.5376    -1.5051     4.5674 C.3     
  11 C11            5.9533     0.5533     4.5994 C.3     
  12 C12            3.6311     1.9139     3.2292 C.ar    
  13 C13            3.2545    -0.3283     2.4785 C.ar    
  14 C14            2.9532     2.3972     2.1257 C.ar    
  15 C15            2.5767     0.1551     1.3750 C.ar    
  16 C16           -0.6870     2.0210    -1.5640 C.3     
  17 C17            2.3901     1.5799    -1.2787 C.3     
  18 C18           -2.1412     1.5676    -1.7070 C.3     
  19 C19           -2.7062     2.0773    -3.0344 C.3     
  20 H20            1.6702     3.1341     0.0278 H       
  21 H21            2.7899     0.1123     5.8940 H       
  22 H22            4.3471     0.1082     6.7563 H       
  23 H23            3.7985     1.5788     5.9168 H       
  24 H24            5.0400    -1.8365     3.6586 H       
  25 H25            5.0720    -1.8862     5.4376 H       
  26 H26            3.5149    -1.8821     4.5753 H       
  27 H27            5.9392     1.6428     4.6301 H       
  28 H28            6.4878     0.1722     5.4696 H       
  29 H29            6.4557     0.2219     3.6906 H       
  30 H30            4.0443     2.6010     3.9528 H       
  31 H31            3.3741    -1.3929     2.6152 H       
  32 H32            2.8336     3.4618     1.9890 H       
  33 H33            2.1629    -0.5321     0.6518 H       
  34 H34           -0.6423     3.1100    -1.5837 H       
  35 H35           -0.0981     1.6183    -2.3880 H       
  36 H36            2.4045     0.4904    -1.3096 H       
  37 H37            1.8556     1.9610    -2.1489 H       
  38 H38            3.4127     1.9571    -1.2864 H       
  39 H39           -2.7301     1.9704    -0.8829 H       
  40 H40           -2.1744     1.6054    -3.8607 H       
  41 H41           -2.5804     3.1585    -3.0916 H       
  42 H42           -1.6969    -0.2871    -2.3881 H       
  43 H43           -4.5205     2.0482    -3.9335 H       
@<TRIPOS>BOND
   1    1    2 2
   2    1    7 1
   3    1   16 1
   4    3   18 1
   5    3   42 1
   6    4   19 1
   7    4   43 1
   8    5    6 1
   9    5    9 1
  10    5   10 1
  11    5   11 1
  12    6   12 ar
  13    6   13 ar
  14    7    8 1
  15    7   17 1
  16    7   20 1
  17    8   14 ar
  18    8   15 ar
  19    9   21 1
  20    9   22 1
  21    9   23 1
  22   10   24 1
  23   10   25 1
  24   10   26 1
  25   11   27 1
  26   11   28 1
  27   11   29 1
  28   12   14 ar
  29   12   30 1
  30   13   15 ar
  31   13   31 1
  32   14   32 1
  33   15   33 1
  34   16   18 1
  35   16   34 1
  36   16   35 1
  37   17   36 1
  38   17   37 1
  39   17   38 1
  40   18   19 1
  41   18   39 1
  42   19   40 1
  43   19   41 1

#	End of record

#	Name: 11835476
#	Creating user name:	landrgr1
#	Creation time:	28. 01. 2015 13:52

#	Modifying user name:	landrgr1
#	Modification time:	28. 01. 2015 13:52

#	Program:	corina 3.48 0006  22.01.2010

@<TRIPOS>MOLECULE
11835476
  46   48    0    0    0
SMALL
NO_CHARGES


@<TRIPOS>ATOM
   1 S1            -2.8385     0.6510    -3.1520 S.3     
   2 F2            -1.3655    -2.9807     3.0394 F       
   3 F3             0.3368    -3.3434     1.5596 F       
   4 F4            -1.5669    -4.6010     1.4415 F       
   5 O5            -4.3969     7.6994     2.0662 O.3     
   6 O6            -6.4999     4.4354    -0.9517 O.2     
   7 N7            -2.7057    -0.5591    -0.0261 N.pl3   
   8 N8            -5.1871     5.3344     0.5979 N.am    
   9 N9            -2.2899    -1.2325     1.1292 N.2     
  10 C10           -5.9265     6.5984     0.5534 C.3     
  11 C11           -3.4106     0.6459    -0.0686 C.ar    
  12 C12           -2.2921    -1.2906    -1.1061 C.2     
  13 C13           -5.7658     7.3305     1.8872 C.3     
  14 C14           -4.8095     3.0365    -0.1525 C.ar    
  15 C15           -1.6316    -2.3976    -0.6154 C.2     
  16 C16           -1.6589    -2.3241     0.7774 C.2     
  17 C17           -5.3771     7.4711    -0.5768 C.3     
  18 C18           -4.4921     0.7871    -0.9319 C.ar    
  19 C19           -3.0331     1.7001     0.7567 C.ar    
  20 C20           -5.5547     4.3103    -0.1973 C.2     
  21 C21           -2.5115    -0.9590    -2.5240 C.2     
  22 C22           -5.1892     1.9737    -0.9763 C.ar    
  23 C23           -3.7262     2.8893     0.7177 C.ar    
  24 C24           -1.0528    -3.3303     1.7214 C.3     
  25 C25           -2.4927    -1.8440    -3.5440 C.2     
  26 C26           -2.7257    -1.2946    -4.7869 C.2     
  27 C27           -2.9338     0.0258    -4.7929 C.2     
  28 C28           -4.1369     8.3929     3.2883 C.3     
  29 H29           -6.9825     6.3954     0.3752 H       
  30 H30           -6.0748     6.6746     2.7012 H       
  31 H31           -6.3866     8.2265     1.8870 H       
  32 H32           -4.4329     5.2347     1.1998 H       
  33 H33           -1.1790    -3.1823    -1.2034 H       
  34 H34           -5.9272     8.4115    -0.6099 H       
  35 H35           -4.3210     7.6740    -0.3986 H       
  36 H36           -5.4915     6.9495    -1.5271 H       
  37 H37           -4.7851    -0.0348    -1.5684 H       
  38 H38           -2.1957     1.5856     1.4291 H       
  39 H39           -6.0263     2.0841    -1.6497 H       
  40 H40           -3.4301     3.7088     1.3558 H       
  41 H41           -2.3095    -2.8983    -3.3977 H       
  42 H42           -2.7386    -1.8875    -5.6895 H       
  43 H43           -3.1313     0.6194    -5.6732 H       
  44 H44           -3.0764     8.6376     3.3487 H       
  45 H45           -4.7238     9.3109     3.3172 H       
  46 H46           -4.4120     7.7591     4.1314 H       
@<TRIPOS>BOND
   1    1   21 1
   2    1   27 1
   3    2   24 1
   4    3   24 1
   5    4   24 1
   6    5   13 1
   7    5   28 1
   8    6   20 2
   9    7    9 1
  10    7   11 1
  11    7   12 1
  12    8   10 1
  13    8   20 am
  14    8   32 1
  15    9   16 2
  16   10   13 1
  17   10   17 1
  18   10   29 1
  19   11   18 ar
  20   11   19 ar
  21   12   15 2
  22   12   21 1
  23   13   30 1
  24   13   31 1
  25   14   20 1
  26   14   22 ar
  27   14   23 ar
  28   15   16 1
  29   15   33 1
  30   16   24 1
  31   17   34 1
  32   17   35 1
  33   17   36 1
  34   18   22 ar
  35   18   37 1
  36   19   23 ar
  37   19   38 1
  38   21   25 2
  39   22   39 1
  40   23   40 1
  41   25   26 1
  42   25   41 1
  43   26   27 2
  44   26   42 1
  45   27   43 1
  46   28   44 1
  47   28   45 1
  48   28   46 1

#	End of record

#	Name: 11835463
#	Creating user name:	landrgr1
#	Creation time:	28. 01. 2015 13:52

#	Modifying user name:	landrgr1
#	Modification time:	28. 01. 2015 13:52

#	Program:	corina 3.48 0006  22.01.2010

@<TRIPOS>MOLECULE
11835463
  43   45    0    0    0
SMALL
NO_CHARGES


@<TRIPOS>ATOM
   1 O1            -0.0162     1.3415     0.0094 O.3     
   2 N2            -1.0919    -0.8440     0.0080 N.3     
   3 N3             2.0668     0.7699    -0.0135 N.2     
   4 N4             2.2495    -2.7792    -0.0351 N.1     
   5 C5            -3.5311    -1.0327    -0.1160 C.3     
   6 C6            -2.1766    -2.7888     1.0284 C.3     
   7 C7            -3.5107    -2.0374     1.0393 C.3     
   8 C8            -2.3441    -0.0770     0.0246 C.3     
   9 C9            -1.0289    -1.7823     1.1358 C.3     
  10 C10           -3.4291    -1.7817    -1.4462 C.3     
  11 C11           -2.1235    -3.7527     2.2154 C.3     
  12 C12            0.0021    -0.0041     0.0020 C.2     
  13 C13            1.3345    -0.3799    -0.0127 C.2     
  14 C14            1.2530     1.7806    -0.0003 C.2     
  15 C15            1.6693     3.2289     0.0030 C.3     
  16 C16            1.8447    -1.7179    -0.0252 C.1     
  17 C17            1.7947     3.7188    -1.4166 C.ar    
  18 C18            0.7017     4.2742    -2.0552 C.ar    
  19 C19            3.0042     3.6180    -2.0783 C.ar    
  20 C20            0.8167     4.7236    -3.3574 C.ar    
  21 C21            3.1192     4.0674    -3.3805 C.ar    
  22 C22            2.0248     4.6179    -4.0209 C.ar    
  23 H23           -4.4609    -0.4646    -0.0879 H       
  24 H24           -2.0827    -3.3501     0.0987 H       
  25 H25           -3.6225    -1.5073     1.9851 H       
  26 H26           -4.3294    -2.7470     0.9194 H       
  27 H27           -2.4247     0.4662     0.9661 H       
  28 H28           -2.3475     0.6308    -0.8043 H       
  29 H29           -0.0771    -2.3130     1.1139 H       
  30 H30           -1.1157    -1.2310     2.0721 H       
  31 H31           -4.2729    -2.4647    -1.5442 H       
  32 H32           -3.4436    -1.0660    -2.2682 H       
  33 H33           -2.4981    -2.3479    -1.4739 H       
  34 H34           -2.9433    -4.4672     2.1403 H       
  35 H35           -1.1737    -4.2873     2.2072 H       
  36 H36           -2.2158    -3.1902     3.1446 H       
  37 H37            0.9192     3.8214     0.5269 H       
  38 H38            2.6298     3.3297     0.5083 H       
  39 H39           -0.2422     4.3567    -1.5368 H       
  40 H40            3.8594     3.1884    -1.5778 H       
  41 H41           -0.0375     5.1568    -3.8566 H       
  42 H42            4.0642     3.9889    -3.8973 H       
  43 H43            2.1145     4.9687    -5.0384 H       
@<TRIPOS>BOND
   1    1   12 1
   2    1   14 1
   3    2    8 1
   4    2    9 1
   5    2   12 1
   6    3   13 1
   7    3   14 2
   8    4   16 3
   9    5    7 1
  10    5    8 1
  11    5   10 1
  12    5   23 1
  13    6    7 1
  14    6    9 1
  15    6   11 1
  16    6   24 1
  17    7   25 1
  18    7   26 1
  19    8   27 1
  20    8   28 1
  21    9   29 1
  22    9   30 1
  23   10   31 1
  24   10   32 1
  25   10   33 1
  26   11   34 1
  27   11   35 1
  28   11   36 1
  29   12   13 2
  30   13   16 1
  31   14   15 1
  32   15   17 1
  33   15   37 1
  34   15   38 1
  35   17   18 ar
  36   17   19 ar
  37   18   20 ar
  38   18   39 1
  39   19   21 ar
  40   19   40 1
  41   20   22 ar
  42   20   41 1
  43   21   22 ar
  44   21   42 1
  45   22   43 1

#	End of record

#	Name: 11835305
#	Creating user name:	landrgr1
#	Creation time:	28. 01. 2015 13:52

#	Modifying user name:	landrgr1
#	Modification time:	28. 01. 2015 13:52

#	Program:	corina 3.48 0006  22.01.2010

@<TRIPOS>MOLECULE
11835305
  59   61    0    0    0
SMALL
NO_CHARGES


@<TRIPOS>ATOM
   1 S1            -1.1840    -0.9104     0.9101 S.3     
   2 O2            -6.9889     2.2726     2.6241 O.3     
   3 O3            -3.1435    -4.2511     1.7991 O.2     
   4 N4            -8.9130     4.3717     2.8386 N.3     
   5 N5            -7.7073     0.0215     0.9539 N.pl3   
   6 C6            -8.2342     2.2026     1.9267 C.3     
   7 C7            -8.7127     3.6173     1.5941 C.3     
   8 C8            -8.0497     1.4090     0.6318 C.3     
   9 C9            -7.6299     4.8264     3.3908 C.3     
  10 C10           -9.8257     5.5032     2.6272 C.3     
  11 C11           -8.6246    -0.9715     1.2318 C.ar    
  12 C12           -7.9064    -2.1508     1.4873 C.ar    
  13 C13           -6.4447    -0.4695     1.0154 C.2     
  14 C14           -6.9309     5.7337     2.3763 C.3     
  15 C15          -10.2177     6.1018     3.9796 C.3     
  16 C16           -6.4817    -1.7963     1.3430 C.2     
  17 C17          -10.0138    -0.9922     1.2940 C.ar    
  18 C18           -8.5829    -3.3267     1.7995 C.ar    
  19 C19           -5.5810     6.1830     2.9391 C.3     
  20 C20          -11.2788     7.1839     3.7700 C.3     
  21 C21           -5.3349    -2.6896     1.5118 C.2     
  22 C22          -10.6710    -2.1634     1.6037 C.ar    
  23 C23           -9.9599    -3.3272     1.8563 C.ar    
  24 C24           -4.0761    -2.2154     1.3453 C.2     
  25 C25           -2.9665    -3.0797     1.5086 C.2     
  26 C26           -1.6032    -2.5660     1.3283 C.2     
  27 C27           -0.4564    -3.2982     1.4581 C.2     
  28 C28            0.6850    -2.5651     1.2334 C.2     
  29 C29            0.4821    -1.2776     0.9301 C.2     
  30 H30           -8.9747     1.7068     2.5544 H       
  31 H31           -9.6537     3.5632     1.0466 H       
  32 H32           -7.9641     4.1194     0.9813 H       
  33 H33           -7.2469     1.8542     0.0440 H       
  34 H34           -8.9757     1.4307     0.0572 H       
  35 H35           -7.8071     5.3808     4.3124 H       
  36 H36           -6.9987     3.9632     3.6017 H       
  37 H37           -9.3289     6.2630     2.0238 H       
  38 H38          -10.7205     5.1565     2.1102 H       
  39 H39           -5.5460     0.1018     0.8356 H       
  40 H40           -6.7730     5.1859     1.4473 H       
  41 H41           -7.5524     6.6077     2.1817 H       
  42 H42          -10.6200     5.3178     4.6211 H       
  43 H43           -9.3386     6.5415     4.4508 H       
  44 H44           -6.2818     2.7029     2.1241 H       
  45 H45          -10.5771    -0.0915     1.0997 H       
  46 H46           -8.0313    -4.2342     1.9959 H       
  47 H47           -5.0829     6.8293     2.2164 H       
  48 H48           -5.7388     6.7307     3.8682 H       
  49 H49           -4.9594     5.3089     3.1338 H       
  50 H50          -10.8765     7.9679     3.1285 H       
  51 H51          -12.1579     6.7443     3.2988 H       
  52 H52          -11.5581     7.6104     4.7335 H       
  53 H53           -5.4915    -3.7268     1.7690 H       
  54 H54          -11.7499    -2.1749     1.6513 H       
  55 H55          -10.4877    -4.2379     2.0982 H       
  56 H56           -3.9195    -1.1782     1.0881 H       
  57 H57           -0.4476    -4.3479     1.7122 H       
  58 H58            1.6730    -2.9966     1.2973 H       
  59 H59            1.2681    -0.5660     0.7247 H       
@<TRIPOS>BOND
   1    1   26 1
   2    1   29 1
   3    2    6 1
   4    2   44 1
   5    3   25 2
   6    4    7 1
   7    4    9 1
   8    4   10 1
   9    5    8 1
  10    5   11 1
  11    5   13 1
  12    6    7 1
  13    6    8 1
  14    6   30 1
  15    7   31 1
  16    7   32 1
  17    8   33 1
  18    8   34 1
  19    9   14 1
  20    9   35 1
  21    9   36 1
  22   10   15 1
  23   10   37 1
  24   10   38 1
  25   11   12 ar
  26   11   17 ar
  27   12   16 1
  28   12   18 ar
  29   13   16 2
  30   13   39 1
  31   14   19 1
  32   14   40 1
  33   14   41 1
  34   15   20 1
  35   15   42 1
  36   15   43 1
  37   16   21 1
  38   17   22 ar
  39   17   45 1
  40   18   23 ar
  41   18   46 1
  42   19   47 1
  43   19   48 1
  44   19   49 1
  45   20   50 1
  46   20   51 1
  47   20   52 1
  48   21   24 2
  49   21   53 1
  50   22   23 ar
  51   22   54 1
  52   23   55 1
  53   24   25 1
  54   24   56 1
  55   25   26 1
  56   26   27 2
  57   27   28 1
  58   27   57 1
  59   28   29 2
  60   28   58 1
  61   29   59 1

#	End of record

#	Name: 11835119
#	Creating user name:	landrgr1
#	Creation time:	28. 01. 2015 13:52

#	Modifying user name:	landrgr1
#	Modification time:	28. 01. 2015 13:52

#	Program:	corina 3.48 0006  22.01.2010

@<TRIPOS>MOLECULE
11835119
  40   43    0    0    0
SMALL
NO_CHARGES


@<TRIPOS>ATOM
   1 O1             5.2064     0.6064    -5.1765 O.2     
   2 O2             3.8200     2.0305    -5.8838 O.2     
   3 N3            -0.0365     1.5185    -0.0067 N.3     
   4 N4            -0.7348     0.5632     2.0464 N.2     
   5 N5             4.2043     1.2775    -5.0069 N.pl3   
   6 C6             0.0097     0.0440    -0.0575 C.3     
   7 C7             1.2873     0.8925    -0.0645 C.3     
   8 C8            -0.4378     1.8279     1.3758 C.3     
   9 C9            -0.5027    -0.4411     1.2775 C.2     
  10 C10            2.0515     0.9933    -1.3595 C.ar    
  11 C11            0.7049     2.5428     2.0997 C.3     
  12 C12           -1.6838     2.7156     1.3677 C.3     
  13 C13           -0.7063    -1.8562     1.6451 C.ar    
  14 C14            3.1884     0.2310    -1.5522 C.ar    
  15 C15            1.6124     1.8440    -2.3567 C.ar    
  16 C16           -1.1868    -2.1893     2.9131 C.ar    
  17 C17           -0.4246    -2.8675     0.7244 C.ar    
  18 C18            3.8895     0.3235    -2.7400 C.ar    
  19 C19            2.3135     1.9365    -3.5445 C.ar    
  20 C20            3.4533     1.1781    -3.7352 C.ar    
  21 C21           -1.3746    -3.5138     3.2500 C.ar    
  22 C22           -0.6171    -4.1878     1.0746 C.ar    
  23 C23           -1.0881    -4.5111     2.3348 C.ar    
  24 H24           -0.2741    -0.5141    -0.9498 H       
  25 H25            1.8913     0.9034     0.8428 H       
  26 H26            1.0281     3.4008     1.5102 H       
  27 H27            0.3602     2.8821     3.0765 H       
  28 H28            1.5405     1.8547     2.2282 H       
  29 H29           -2.4981     2.1944     0.8642 H       
  30 H30           -1.9760     2.9411     2.3933 H       
  31 H31           -1.4652     3.6438     0.8397 H       
  32 H32            3.5292    -0.4367    -0.7747 H       
  33 H33            0.7215     2.4360    -2.2079 H       
  34 H34           -1.4105    -1.4119     3.6286 H       
  35 H35           -0.0573    -2.6165    -0.2597 H       
  36 H36            4.7781    -0.2715    -2.8904 H       
  37 H37            1.9702     2.6009    -4.3238 H       
  38 H38           -1.7458    -3.7728     4.2306 H       
  39 H39           -0.4000    -4.9710     0.3633 H       
  40 H40           -1.2366    -5.5464     2.6038 H       
@<TRIPOS>BOND
   1    1    5 2
   2    2    5 2
   3    3    6 1
   4    3    7 1
   5    3    8 1
   6    4    8 1
   7    4    9 2
   8    5   20 1
   9    6    7 1
  10    6    9 1
  11    6   24 1
  12    7   10 1
  13    7   25 1
  14    8   11 1
  15    8   12 1
  16    9   13 1
  17   10   14 ar
  18   10   15 ar
  19   11   26 1
  20   11   27 1
  21   11   28 1
  22   12   29 1
  23   12   30 1
  24   12   31 1
  25   13   16 ar
  26   13   17 ar
  27   14   18 ar
  28   14   32 1
  29   15   19 ar
  30   15   33 1
  31   16   21 ar
  32   16   34 1
  33   17   22 ar
  34   17   35 1
  35   18   20 ar
  36   18   36 1
  37   19   20 ar
  38   19   37 1
  39   21   23 ar
  40   21   38 1
  41   22   23 ar
  42   22   39 1
  43   23   40 1

#	End of record

#	Name: 11834475
#	Creating user name:	landrgr1
#	Creation time:	28. 01. 2015 13:52

#	Modifying user name:	landrgr1
#	Modification time:	28. 01. 2015 13:52

#	Program:	corina 3.48 0006  22.01.2010

@<TRIPOS>MOLECULE
11834475
  58   61    0    0    0
SMALL
NO_CHARGES


@<TRIPOS>ATOM
   1 S1            -0.0218     1.7577     0.0117 S.3     
   2 O2             1.0374     4.3441     0.0155 O.2     
   3 N3             3.2396     4.0757    -0.0070 N.am    
   4 N4            -1.0855    -0.8279     0.0080 N.pl3   
   5 N5            -2.8478    -5.7202    -0.0299 N.ar    
   6 N6             0.7290    -2.0084    -0.0200 N.2     
   7 N7             1.0726    -0.7701    -0.0128 N.2     
   8 N8            -2.4005    -0.4584     0.0229 N.3     
   9 C9             3.4610     5.5239    -0.0013 C.3     
  10 C10            4.8362     5.8272     0.5968 C.3     
  11 C11           -1.3642    -3.3588    -0.0167 C.ar    
  12 C12           -0.7086    -4.6685    -0.0366 C.ar    
  13 C13           -1.5167    -5.8319    -0.0424 C.ar    
  14 C14           -3.4573    -4.5510    -0.0119 C.ar    
  15 C15           -0.5816    -2.1096    -0.0102 C.2     
  16 C16           -2.7551    -3.3414    -0.0047 C.ar    
  17 C17            3.4001     6.0547    -1.4350 C.3     
  18 C18           -4.9399    -4.5174     0.0011 C.ar    
  19 C19            4.8557     5.4090     2.0684 C.3     
  20 C20            0.6842    -4.7886    -0.0493 C.ar    
  21 C21            1.9840     3.5860     0.0024 C.2     
  22 C22           -0.8948    -7.0927    -0.0610 C.ar    
  23 C23            0.0021    -0.0041     0.0020 C.2     
  24 C24            1.7562     2.0963    -0.0035 C.3     
  25 C25            1.2537    -6.0282    -0.0663 C.ar    
  26 C26           -5.6667    -5.7068    -0.0057 C.ar    
  27 C27           -5.6118    -3.2965     0.0259 C.ar    
  28 C28            0.4646    -7.1750    -0.0730 C.ar    
  29 C29           -7.7077    -4.4548     0.0253 C.ar    
  30 C30           -7.0462    -5.6695     0.0064 C.ar    
  31 C31           -6.9916    -3.2713     0.0379 C.ar    
  32 C32           -9.2143    -4.4207     0.0384 C.3     
  33 H33            2.6894     6.0071     0.5981 H       
  34 H34            5.5999     5.2729     0.0514 H       
  35 H35            5.0382     6.8955     0.5200 H       
  36 H36           -3.2881    -2.4022     0.0104 H       
  37 H37            3.9966     3.4694    -0.0175 H       
  38 H38            4.1716     5.5715    -2.0344 H       
  39 H39            2.4204     5.8386    -1.8611 H       
  40 H40            3.5649     7.1322    -1.4308 H       
  41 H41            4.0920     5.9633     2.6139 H       
  42 H42            4.6537     4.3406     2.1453 H       
  43 H43            5.8354     5.6251     2.4946 H       
  44 H44            1.3057    -3.9053    -0.0453 H       
  45 H45           -1.4925    -7.9922    -0.0654 H       
  46 H46            2.2177     1.6547     0.8798 H       
  47 H47            2.2007     1.6643    -0.9001 H       
  48 H48            2.3296    -6.1210    -0.0765 H       
  49 H49           -5.1512    -6.6557    -0.0208 H       
  50 H50           -5.0537    -2.3719     0.0361 H       
  51 H51            0.9380    -8.1456    -0.0870 H       
  52 H52           -7.6103    -6.5904     0.0008 H       
  53 H53           -7.5133    -2.3258     0.0571 H       
  54 H54           -2.7407    -0.3709     0.9688 H       
  55 H55           -2.5415     0.3974    -0.4927 H       
  56 H56           -9.5688    -4.4236     1.0692 H       
  57 H57           -9.5616    -3.5171    -0.4626 H       
  58 H58           -9.6021    -5.2965    -0.4817 H       
@<TRIPOS>BOND
   1    1   23 1
   2    1   24 1
   3    2   21 2
   4    3    9 1
   5    3   21 am
   6    3   37 1
   7    4    8 1
   8    4   15 1
   9    4   23 1
  10    5   13 ar
  11    5   14 ar
  12    6    7 1
  13    6   15 2
  14    7   23 2
  15    8   54 1
  16    8   55 1
  17    9   10 1
  18    9   17 1
  19    9   33 1
  20   10   19 1
  21   10   34 1
  22   10   35 1
  23   11   12 ar
  24   11   15 1
  25   11   16 ar
  26   12   13 ar
  27   12   20 ar
  28   13   22 ar
  29   14   16 ar
  30   14   18 1
  31   16   36 1
  32   17   38 1
  33   17   39 1
  34   17   40 1
  35   18   26 ar
  36   18   27 ar
  37   19   41 1
  38   19   42 1
  39   19   43 1
  40   20   25 ar
  41   20   44 1
  42   21   24 1
  43   22   28 ar
  44   22   45 1
  45   24   46 1
  46   24   47 1
  47   25   28 ar
  48   25   48 1
  49   26   30 ar
  50   26   49 1
  51   27   31 ar
  52   27   50 1
  53   28   51 1
  54   29   30 ar
  55   29   31 ar
  56   29   32 1
  57   30   52 1
  58   31   53 1
  59   32   56 1
  60   32   57 1
  61   32   58 1

#	End of record

#	Name: 11834449
#	Creating user name:	landrgr1
#	Creation time:	28. 01. 2015 13:52

#	Modifying user name:	landrgr1
#	Modification time:	28. 01. 2015 13:52

#	Program:	corina 3.48 0006  22.01.2010

@<TRIPOS>MOLECULE
11834449
  48   49    0    0    0
SMALL
NO_CHARGES


@<TRIPOS>ATOM
   1 Br1           -1.8568     6.5655     1.8785 Br      
   2 O2             2.9448    -1.7719    -1.9215 O.2     
   3 N3             0.2572     1.1564     0.6993 N.3     
   4 N4             2.0331     0.1112    -1.1765 N.am    
   5 N5             6.7214     0.0194    -1.8727 N.ar    
   6 C6             0.2008    -0.2773     0.3839 C.3     
   7 C7             1.6387     1.6548     0.6688 C.3     
   8 C8             0.7028    -0.5024    -1.0463 C.3     
   9 C9             2.1996     1.5088    -0.7497 C.3     
  10 C10           -0.3747     1.4354     1.9958 C.3     
  11 C11            3.0722    -0.5888    -1.6733 C.2     
  12 C12           -0.0854     2.8581     2.3997 C.ar    
  13 C13            4.3669     0.0822    -1.9164 C.ar    
  14 C14           -0.9458     3.8719     2.0232 C.ar    
  15 C15            1.0379     3.1483     3.1519 C.ar    
  16 C16           -0.6801     5.1779     2.3941 C.ar    
  17 C17            1.3038     4.4530     3.5227 C.ar    
  18 C18            4.4083     1.3914    -2.4112 C.ar    
  19 C19            5.5680    -0.5782    -1.6562 C.ar    
  20 C20            0.4466     5.4685     3.1416 C.ar    
  21 C21            5.6455     1.9743    -2.6210 C.ar    
  22 C22            6.7910     1.2520    -2.3379 C.ar    
  23 H23            0.8313    -0.8283     1.0817 H       
  24 H24           -0.8279    -0.6280     0.4678 H       
  25 H25            1.6529     2.7052     0.9593 H       
  26 H26            2.2492     1.0769     1.3626 H       
  27 H27            0.0148    -0.0384    -1.7531 H       
  28 H28            0.7716    -1.5717    -1.2462 H       
  29 H29            3.2581     1.7692    -0.7535 H       
  30 H30            1.6555     2.1661    -1.4280 H       
  31 H31           -1.4522     1.2932     1.9130 H       
  32 H32            0.0247     0.7556     2.7484 H       
  33 H33           -1.8254     3.6446     1.4391 H       
  34 H34            1.7076     2.3552     3.4500 H       
  35 H35            2.1812     4.6792     4.1105 H       
  36 H36            3.4980     1.9322    -2.6241 H       
  37 H37            5.5518    -1.5883    -1.2743 H       
  38 H38            0.6545     6.4879     3.4314 H       
  39 H39            5.7162     2.9824    -3.0020 H       
  40 H40            7.7581     1.7044    -2.5010 H       
  41 O41           15.0817    15.4715     9.1311 O.3     
  42 O42           13.8344    12.0162     9.1245 O.3     
  43 O43           16.1581    13.5343     9.1105 O.2     
  44 O44           12.7581    13.9534     9.1452 O.2     
  45 C45           15.0999    14.1262     9.1237 C.2     
  46 C46           13.8162    13.3616     9.1319 C.2     
  47 H47           15.9372    15.9222     9.1254 H       
  48 H48           12.9789    11.5655     9.1302 H       
@<TRIPOS>BOND
   1    1   16 1
   2    2   11 2
   3    3    6 1
   4    3    7 1
   5    3   10 1
   6    4    8 1
   7    4    9 1
   8    4   11 am
   9    5   19 ar
  10    5   22 ar
  11    6    8 1
  12    6   23 1
  13    6   24 1
  14    7    9 1
  15    7   25 1
  16    7   26 1
  17    8   27 1
  18    8   28 1
  19    9   29 1
  20    9   30 1
  21   10   12 1
  22   10   31 1
  23   10   32 1
  24   11   13 1
  25   12   14 ar
  26   12   15 ar
  27   13   18 ar
  28   13   19 ar
  29   14   16 ar
  30   14   33 1
  31   15   17 ar
  32   15   34 1
  33   16   20 ar
  34   17   20 ar
  35   17   35 1
  36   18   21 ar
  37   18   36 1
  38   19   37 1
  39   20   38 1
  40   21   22 ar
  41   21   39 1
  42   22   40 1
  43   41   45 1
  44   41   47 1
  45   42   46 1
  46   42   48 1
  47   43   45 2
  48   44   46 2
  49   45   46 1

#	End of record

#	Name: 11834426
#	Creating user name:	landrgr1
#	Creation time:	28. 01. 2015 13:52

#	Modifying user name:	landrgr1
#	Modification time:	28. 01. 2015 13:52

#	Program:	corina 3.48 0006  22.01.2010

@<TRIPOS>MOLECULE
11834426
  38   39    0    0    0
SMALL
NO_CHARGES


@<TRIPOS>ATOM
   1 Cl1            0.0000     0.0000     0.0000 Cl      
   2 H2             0.0000     1.3700     0.0000 H       
   3 S3            10.7789    11.8493     6.5140 S.3     
   4 O4            15.0664     9.2982     6.4589 O.3     
   5 O5            11.4494     7.8390     8.5675 O.3     
   6 N6            12.1247     9.7364     6.4898 N.pl3   
   7 N7             9.7656     9.2607     6.5097 N.2     
   8 N8             6.9377    11.3069     7.3969 N.ar    
   9 C9            12.5571     8.3368     6.4781 C.3     
  10 C10           13.0276    10.7666     6.4867 C.2     
  11 C11           10.8029    10.0764     6.5042 C.2     
  12 C12           12.7215     7.8417     7.9165 C.3     
  13 C13           14.4776    10.5100     6.4710 C.2     
  14 C14           12.5434    12.0178     6.4980 C.2     
  15 C15           15.4572    11.4564     6.4662 C.2     
  16 C16           16.6867    10.7674     6.4504 C.2     
  17 C17            8.4963     9.7690     6.5241 C.ar    
  18 C18           16.4021     9.4508     6.4464 C.2     
  19 C19           11.4916     7.3908     9.9238 C.3     
  20 C20            7.5095     9.2463     5.6774 C.ar    
  21 C21            8.1605    10.8183     7.3835 C.ar    
  22 C22            6.2414     9.7959     5.7315 C.ar    
  23 C23            5.9896    10.8341     6.6110 C.ar    
  24 H24           11.8092     7.7296     5.9681 H       
  25 H25           13.5098     8.2551     5.9547 H       
  26 H26           13.4026     8.5026     8.4526 H       
  27 H27           13.1277     6.8303     7.9085 H       
  28 H28           13.1108    12.9367     6.4975 H       
  29 H29           15.3187    12.5274     6.4726 H       
  30 H30           17.6712    11.2114     6.4427 H       
  31 H31           17.1269     8.6502     6.4354 H       
  32 H32           10.4874     7.4182    10.3469 H       
  33 H33           11.8723     6.3700     9.9574 H       
  34 H34           12.1472     8.0423    10.5015 H       
  35 H35            7.7334     8.4355     5.0000 H       
  36 H36            8.9100    11.2322     8.0418 H       
  37 H37            5.4558     9.4188     5.0935 H       
  38 H38            5.0000    11.2644     6.6550 H       
@<TRIPOS>BOND
   1    1    2 1
   2    3   11 1
   3    3   14 1
   4    4   13 1
   5    4   18 1
   6    5   12 1
   7    5   19 1
   8    6    9 1
   9    6   10 1
  10    6   11 1
  11    7   11 2
  12    7   17 1
  13    8   21 ar
  14    8   23 ar
  15    9   12 1
  16    9   24 1
  17    9   25 1
  18   10   13 1
  19   10   14 2
  20   12   26 1
  21   12   27 1
  22   13   15 2
  23   14   28 1
  24   15   16 1
  25   15   29 1
  26   16   18 2
  27   16   30 1
  28   17   20 ar
  29   17   21 ar
  30   18   31 1
  31   19   32 1
  32   19   33 1
  33   19   34 1
  34   20   22 ar
  35   20   35 1
  36   21   36 1
  37   22   23 ar
  38   22   37 1
  39   23   38 1

#	End of record

#	Name: 11834418
#	Creating user name:	landrgr1
#	Creation time:	28. 01. 2015 13:52

#	Modifying user name:	landrgr1
#	Modification time:	28. 01. 2015 13:52

#	Program:	corina 3.48 0006  22.01.2010

@<TRIPOS>MOLECULE
11834418
  26   26    0    0    0
SMALL
NO_CHARGES


@<TRIPOS>ATOM
   1 Cl1            0.3619     8.1909     1.1169 Cl      
   2 N2            -0.2008     1.6612     0.3618 N.2     
   3 N3             1.4372     3.3126     0.0044 N.pl3   
   4 C4             1.0824    -0.3388     0.6517 C.3     
   5 C5             1.9210     0.8058     0.0333 C.3     
   6 C6            -0.3514     0.2043     0.4510 C.3     
   7 C7             1.0164     2.0139     0.1354 C.2     
   8 C8             0.5032     4.3535     0.0030 C.ar    
   9 C9             0.8526     5.6023     0.4995 C.ar    
  10 C10           -0.7741     4.1418    -0.5004 C.ar    
  11 C11           -0.0731     6.6290     0.4966 C.ar    
  12 C12           -1.6946     5.1712    -0.5006 C.ar    
  13 C13           -1.3465     6.4124    -0.0000 C.ar    
  14 H14            1.2289    -1.2715     0.1069 H       
  15 H15            1.3100    -0.4647     1.7103 H       
  16 H16            2.8350     0.9629     0.6060 H       
  17 H17            2.1539     0.5893    -1.0092 H       
  18 H18           -0.9787    -0.0597     1.3024 H       
  19 H19           -0.7792    -0.1888    -0.4713 H       
  20 H20            2.3827     3.5092    -0.0872 H       
  21 H21            1.8462     5.7712     0.8877 H       
  22 H22           -1.0470     3.1728    -0.8916 H       
  23 H23           -2.6876     5.0066    -0.8919 H       
  24 H24           -2.0684     7.2157    -0.0011 H       
  25 Cl25           7.8350    13.1909     6.7103 Cl      
  26 H26            7.8350    14.5609     6.7103 H       
@<TRIPOS>BOND
   1    1   11 1
   2    2    6 1
   3    2    7 2
   4    3    7 1
   5    3    8 1
   6    3   20 1
   7    4    5 1
   8    4    6 1
   9    4   14 1
  10    4   15 1
  11    5    7 1
  12    5   16 1
  13    5   17 1
  14    6   18 1
  15    6   19 1
  16    8    9 ar
  17    8   10 ar
  18    9   11 ar
  19    9   21 1
  20   10   12 ar
  21   10   22 1
  22   11   13 ar
  23   12   13 ar
  24   12   23 1
  25   13   24 1
  26   25   26 1

#	End of record

#	Name: 11731607
#	Creating user name:	landrgr1
#	Creation time:	28. 01. 2015 13:52

#	Modifying user name:	landrgr1
#	Modification time:	28. 01. 2015 13:52

#	Program:	corina 3.48 0006  22.01.2010

@<TRIPOS>MOLECULE
11731607
  33   33    0    0    0
SMALL
NO_CHARGES


@<TRIPOS>ATOM
   1 I1             0.0000     0.0000     0.0000 I       
   2 S2            10.0009    14.1904     6.8102 S.3     
   3 O3             5.4874    12.6352     7.5090 O.3     
   4 N4             8.8993    11.6402     6.4905 N.pl3   
   5 N5             7.0901     6.8465     5.9432 N.ar    
   6 N6            10.6699    10.4118     6.6769 N.2     
   7 N7            11.0333    11.6371     6.8116 N.2     
   8 C8             9.3729    10.3480     6.4836 C.2     
   9 C9             7.5116    12.0751     6.3133 C.3     
  10 C10            8.5725     9.1203     6.2943 C.ar    
  11 C11            9.9905    12.4317     6.7027 C.2     
  12 C12            6.8410    12.2109     7.6818 C.3     
  13 C13            9.1811     7.9139     5.9264 C.ar    
  14 C14            7.1842     9.1308     6.4772 C.ar    
  15 C15            8.3959     6.7927     5.7601 C.ar    
  16 C16            6.4765     7.9623     6.2895 C.ar    
  17 C17            6.2958     5.6308     5.7495 C.3     
  18 C18           11.7654    14.4775     7.0935 C.3     
  19 H19            7.4950    13.0383     5.8034 H       
  20 H20            6.9734    11.3387     5.7165 H       
  21 H21            7.3791    12.9473     8.2786 H       
  22 H22            6.8576    11.2477     8.1918 H       
  23 H23           10.2493     7.8624     5.7757 H       
  24 H24            6.6755    10.0403     6.7610 H       
  25 H25            8.8560     5.8575     5.4769 H       
  26 H26            5.4055     7.9602     6.4285 H       
  27 H27            6.2277     5.0873     6.6918 H       
  28 H28            5.2950     5.9005     5.4124 H       
  29 H29            6.7739     5.0000     5.0000 H       
  30 H30            5.0000    12.7424     8.3372 H       
  31 H31           12.0724    13.9758     8.0112 H       
  32 H32           12.3373    14.0816     6.2543 H       
  33 H33           11.9491    15.5479     7.1857 H       
@<TRIPOS>BOND
   1    2   11 1
   2    2   18 1
   3    3   12 1
   4    3   30 1
   5    4    8 1
   6    4    9 1
   7    4   11 1
   8    5   15 ar
   9    5   16 ar
  10    5   17 1
  11    6    7 1
  12    6    8 2
  13    7   11 2
  14    8   10 1
  15    9   12 1
  16    9   19 1
  17    9   20 1
  18   10   13 ar
  19   10   14 ar
  20   12   21 1
  21   12   22 1
  22   13   15 ar
  23   13   23 1
  24   14   16 ar
  25   14   24 1
  26   15   25 1
  27   16   26 1
  28   17   27 1
  29   17   28 1
  30   17   29 1
  31   18   31 1
  32   18   32 1
  33   18   33 1

#	End of record

#	Name: 10936336
#	Creating user name:	landrgr1
#	Creation time:	28. 01. 2015 13:52

#	Modifying user name:	landrgr1
#	Modification time:	28. 01. 2015 13:52

#	Program:	corina 3.48 0006  22.01.2010

@<TRIPOS>MOLECULE
10936336
  34   35    0    0    0
SMALL
NO_CHARGES


@<TRIPOS>ATOM
   1 Br1            0.0000     0.0000     0.0000 Br      
   2 O2             9.4634    10.6219     6.9435 O.2     
   3 N3             8.3631    10.1941     9.2854 N.ar    
   4 C4             8.3813     8.8573     9.2781 C.ar    
   5 C5             9.6303    10.9292     9.2773 C.3     
   6 C6             7.1617     8.1357     9.2859 C.ar    
   7 C7             7.2342    10.8602     9.2943 C.ar    
   8 C8             9.5947     8.1482     9.2622 C.ar    
   9 C9            10.1134    11.0818     7.8580 C.2     
  10 C10            5.9474     8.8477     9.3017 C.ar    
  11 C11            6.0006    10.2124     9.2966 C.ar    
  12 C12            7.1861     6.7320     9.2772 C.ar    
  13 C13           11.3741    11.7890     7.5818 C.ar    
  14 C14            9.5815     6.7872     9.2546 C.ar    
  15 C15            8.3814     6.0798     9.2614 C.ar    
  16 C16           11.8258    11.9327     6.2661 C.ar    
  17 C17           12.1238    12.3259     8.6333 C.ar    
  18 C18           13.0081    12.5966     6.0155 C.ar    
  19 C19           13.3040    12.9871     8.3664 C.ar    
  20 C20           13.7474    13.1197     7.0621 C.ar    
  21 H21            9.4814    11.9148     9.7183 H       
  22 H22           10.3726    10.3803     9.8567 H       
  23 H23            7.2610    11.9398     9.3005 H       
  24 H24           10.5340     8.6813     9.2556 H       
  25 H25            5.0000     8.3292     9.3080 H       
  26 H26            5.0874    10.7889     9.3044 H       
  27 H27            6.2622     6.1727     9.2835 H       
  28 H28           10.5166     6.2469     9.2420 H       
  29 H29            8.3992     5.0000     9.2548 H       
  30 H30           11.2504    11.5244     5.4484 H       
  31 H31           11.7790    12.2232     9.6517 H       
  32 H32           13.3582    12.7084     5.0000 H       
  33 H33           13.8838    13.4026     9.1773 H       
  34 H34           14.6730    13.6381     6.8595 H       
@<TRIPOS>BOND
   1    2    9 2
   2    3    4 ar
   3    3    5 1
   4    3    7 ar
   5    4    6 ar
   6    4    8 ar
   7    5    9 1
   8    5   21 1
   9    5   22 1
  10    6   10 ar
  11    6   12 ar
  12    7   11 ar
  13    7   23 1
  14    8   14 ar
  15    8   24 1
  16    9   13 1
  17   10   11 ar
  18   10   25 1
  19   11   26 1
  20   12   15 ar
  21   12   27 1
  22   13   16 ar
  23   13   17 ar
  24   14   15 ar
  25   14   28 1
  26   15   29 1
  27   16   18 ar
  28   16   30 1
  29   17   19 ar
  30   17   31 1
  31   18   20 ar
  32   18   32 1
  33   19   20 ar
  34   19   33 1
  35   20   34 1

#	End of record

#	Name: 9661043
#	Creating user name:	landrgr1
#	Creation time:	28. 01. 2015 13:52

#	Modifying user name:	landrgr1
#	Modification time:	28. 01. 2015 13:52

#	Program:	corina 3.48 0006  22.01.2010

@<TRIPOS>MOLECULE
9661043
  29   29    0    0    0
SMALL
NO_CHARGES


@<TRIPOS>ATOM
   1 O1            -0.1342     1.5353    -0.1135 O.3     
   2 O2            -3.2470    -1.8310    -0.9863 O.2     
   3 O3            -6.1828    -3.0538    -2.4568 O.3     
   4 N4            -2.4188    -0.0384     0.0254 N.am    
   5 N5            -7.0027    -0.6027    -1.7161 N.pl3   
   6 N6            -5.2995    -2.1637    -1.7991 N.2     
   7 C7            -1.1440    -0.6151     0.1007 C.ar    
   8 C8            -0.0083     0.1889     0.0296 C.ar    
   9 C9            -4.7680    -0.0419    -0.7493 C.3     
  10 C10           -1.0093    -1.9871     0.2519 C.ar    
  11 C11           -3.4241    -0.7022    -0.5792 C.2     
  12 C12            1.2494    -0.3866     0.1045 C.ar    
  13 C13            0.2494    -2.5538     0.3254 C.ar    
  14 C14            1.3758    -1.7561     0.2491 C.ar    
  15 C15           -5.7081    -0.9892    -1.4493 C.2     
  16 C16            1.0734     2.2965    -0.1792 C.3     
  17 H17           -2.5779     0.8385     0.4083 H       
  18 H18           -5.1731     0.2149     0.2295 H       
  19 H19           -4.6549     0.8640    -1.3448 H       
  20 H20           -1.8877    -2.6126     0.3121 H       
  21 H21            2.1314     0.2342     0.0497 H       
  22 H22            0.3530    -3.6223     0.4431 H       
  23 H23            2.3572    -2.2032     0.3067 H       
  24 H24            0.8311     3.3531    -0.2932 H       
  25 H25            1.6446     2.1515     0.7378 H       
  26 H26            1.6656     1.9654    -1.0323 H       
  27 H27           -7.6078    -1.2124    -2.1666 H       
  28 H28           -7.3095     0.2792    -1.4534 H       
  29 H29           -5.7874    -3.9079    -2.6788 H       
@<TRIPOS>BOND
   1    1    8 1
   2    1   16 1
   3    2   11 2
   4    3    6 1
   5    3   29 1
   6    4    7 1
   7    4   11 am
   8    4   17 1
   9    5   15 1
  10    5   27 1
  11    5   28 1
  12    6   15 2
  13    7    8 ar
  14    7   10 ar
  15    8   12 ar
  16    9   11 1
  17    9   15 1
  18    9   18 1
  19    9   19 1
  20   10   13 ar
  21   10   20 1
  22   12   14 ar
  23   12   21 1
  24   13   14 ar
  25   13   22 1
  26   14   23 1
  27   16   24 1
  28   16   25 1
  29   16   26 1

#	End of record

#	Name: 9661024
#	Creating user name:	landrgr1
#	Creation time:	28. 01. 2015 13:52

#	Modifying user name:	landrgr1
#	Modification time:	28. 01. 2015 13:52

#	Program:	corina 3.48 0006  22.01.2010

@<TRIPOS>MOLECULE
9661024
  57   58    0    0    0
SMALL
NO_CHARGES


@<TRIPOS>ATOM
   1 O1             2.1525    -1.7554     0.5777 O.2     
   2 O2             0.6909     1.3660     1.2081 O.3     
   3 O3             0.3981     3.9541     1.1040 O.2     
   4 N4             1.8994    -3.9179     1.0041 N.am    
   5 N5            -1.0012    -0.2355     2.5500 N.pl3   
   6 N6             0.8907    -0.0356     1.2364 N.2     
   7 N7             2.1631     4.4251    -0.1550 N.am    
   8 C8             3.0952    -4.2565     0.2284 C.3     
   9 C9             3.6717    -5.5812     0.7321 C.3     
  10 C10            2.7231    -4.3913    -1.2495 C.3     
  11 C11            4.9205    -5.9348    -0.0780 C.3     
  12 C12            3.9719    -4.7450    -2.0597 C.3     
  13 C13            4.5484    -6.0697    -1.5559 C.3     
  14 C14            1.5116    -2.6321     1.1177 C.2     
  15 C15            0.2816    -2.2838     1.9156 C.3     
  16 C16            0.0690    -0.7921     1.8855 C.2     
  17 C17            2.9489     6.6360     0.4186 C.ar    
  18 C18            1.9367     5.8008    -0.0365 C.ar    
  19 C19            4.2930     6.0617     0.7854 C.3     
  20 C20            0.6998     6.3339    -0.3739 C.ar    
  21 C21            2.7240     7.9940     0.5290 C.ar    
  22 C22            0.4797     7.6925    -0.2562 C.ar    
  23 C23            1.4926     8.5226     0.1871 C.ar    
  24 C24            5.1571     5.9428    -0.4716 C.3     
  25 C25           -0.4010     5.4314    -0.8685 C.3     
  26 C26            1.6740     2.0781     0.4541 C.3     
  27 C27            1.3650     3.5526     0.4917 C.2     
  28 H28            3.8393    -3.4686     0.3453 H       
  29 H29            3.9368    -5.4851     1.7850 H       
  30 H30            2.9276    -6.3691     0.6152 H       
  31 H31            1.9790    -5.1792    -1.3664 H       
  32 H32            2.3124    -3.4476    -1.6084 H       
  33 H33            5.6646    -5.1469     0.0389 H       
  34 H34            5.3312    -6.8786     0.2808 H       
  35 H35            3.7068    -4.8411    -3.1126 H       
  36 H36            4.7160    -3.9571    -1.9428 H       
  37 H37            5.4380    -6.3216    -2.1331 H       
  38 H38            3.8043    -6.8576    -1.6728 H       
  39 H39            1.3868    -4.6190     1.4360 H       
  40 H40           -0.5855    -2.7831     1.4832 H       
  41 H41            0.4127    -2.6113     2.9469 H       
  42 H42            4.7847     6.7178     1.5037 H       
  43 H43            4.1578     5.0748     1.2281 H       
  44 H44           -1.1380     0.7246     2.5306 H       
  45 H45           -1.6181    -0.8036     3.0374 H       
  46 H46            3.5105     8.6439     0.8831 H       
  47 H47            2.8945     4.0993    -0.7026 H       
  48 H48           -0.4821     8.1078    -0.5189 H       
  49 H49            1.3192     9.5850     0.2743 H       
  50 H50            4.6654     5.2867    -1.1898 H       
  51 H51            5.2922     6.9297    -0.9142 H       
  52 H52            6.1293     5.5274    -0.2062 H       
  53 H53           -1.0618     5.1767    -0.0400 H       
  54 H54           -0.9709     5.9444    -1.6433 H       
  55 H55            0.0334     4.5204    -1.2801 H       
  56 H56            2.6598     1.9023     0.8847 H       
  57 H57            1.6616     1.7305    -0.5790 H       
@<TRIPOS>BOND
   1    1   14 2
   2    2    6 1
   3    2   26 1
   4    3   27 2
   5    4    8 1
   6    4   14 am
   7    4   39 1
   8    5   16 1
   9    5   44 1
  10    5   45 1
  11    6   16 2
  12    7   18 1
  13    7   27 am
  14    7   47 1
  15    8    9 1
  16    8   10 1
  17    8   28 1
  18    9   11 1
  19    9   29 1
  20    9   30 1
  21   10   12 1
  22   10   31 1
  23   10   32 1
  24   11   13 1
  25   11   33 1
  26   11   34 1
  27   12   13 1
  28   12   35 1
  29   12   36 1
  30   13   37 1
  31   13   38 1
  32   14   15 1
  33   15   16 1
  34   15   40 1
  35   15   41 1
  36   17   18 ar
  37   17   19 1
  38   17   21 ar
  39   18   20 ar
  40   19   24 1
  41   19   42 1
  42   19   43 1
  43   20   22 ar
  44   20   25 1
  45   21   23 ar
  46   21   46 1
  47   22   23 ar
  48   22   48 1
  49   23   49 1
  50   24   50 1
  51   24   51 1
  52   24   52 1
  53   25   53 1
  54   25   54 1
  55   25   55 1
  56   26   27 1
  57   26   56 1
  58   26   57 1

#	End of record

#	Name: 9593779
#	Creating user name:	landrgr1
#	Creation time:	28. 01. 2015 13:52

#	Modifying user name:	landrgr1
#	Modification time:	28. 01. 2015 13:52

#	Program:	corina 3.48 0006  22.01.2010

@<TRIPOS>MOLECULE
9593779
  41   43    0    0    0
SMALL
NO_CHARGES


@<TRIPOS>ATOM
   1 S1            -0.1133     1.6234     0.0642 S.o2    
   2 O2             0.0205     0.2107     0.1396 O.2     
   3 O3             0.9977     2.5090     0.0380 O.2     
   4 O4            -4.2323     2.4581     5.2814 O.2     
   5 O5            -3.4067     4.3976     5.1964 O.2     
   6 N6            -2.9369     2.8342    -2.3188 N.ar    
   7 N7            -3.0868     2.9114    -4.6374 N.ar    
   8 N8            -1.2256     1.9338    -3.6133 N.pl3   
   9 N9            -0.9939     1.9374    -1.3027 N.am    
  10 N10           -3.4782     3.2617     4.7626 N.pl3   
  11 N11            0.7673     1.1322    -2.5787 N.pl3   
  12 C12           -4.8239     3.8259    -3.3621 C.ar    
  13 C13           -4.1164     3.4546    -2.1896 C.ar    
  14 C14           -4.2517     3.5241    -4.6121 C.ar    
  15 C15           -1.1003     2.1039     1.4424 C.ar    
  16 C16           -2.4503     2.5775    -3.5165 C.ar    
  17 C17           -6.0608     4.4760    -3.2476 C.ar    
  18 C18           -4.6688     3.7455    -0.9340 C.ar    
  19 C19           -1.9555     1.1916     2.0317 C.ar    
  20 C20           -1.0153     3.3916     1.9379 C.ar    
  21 C21           -4.9562     3.8938    -5.8920 C.3     
  22 C22           -6.5672     4.7421    -2.0106 C.ar    
  23 C23           -2.6487     2.8578     3.6052 C.ar    
  24 C24           -5.8732     4.3785    -0.8590 C.ar    
  25 C25           -2.7299     1.5687     3.1129 C.ar    
  26 C26           -1.7896     3.7686     3.0192 C.ar    
  27 C27           -0.4927     1.6725    -2.4757 C.2     
  28 H28           -6.6086     4.7631    -4.1330 H       
  29 H29           -4.1431     3.4692    -0.0319 H       
  30 H30           -2.0189     0.1844     1.6471 H       
  31 H31           -0.3436     4.1030     1.4805 H       
  32 H32           -5.6044     3.0733    -6.1999 H       
  33 H33           -5.5557     4.7897    -5.7310 H       
  34 H34           -4.2180     4.0856    -6.6707 H       
  35 H35           -0.8849     1.6676    -4.4816 H       
  36 H36           -7.5198     5.2432    -1.9220 H       
  37 H37           -3.3985     0.8561     3.5729 H       
  38 H38           -1.7232     4.7747     3.4064 H       
  39 H39           -6.2968     4.6015     0.1091 H       
  40 H40            1.1698     1.0033    -3.4518 H       
  41 H41            1.2538     0.8799    -1.7784 H       
@<TRIPOS>BOND
   1    1    2 2
   2    1    3 2
   3    1    9 am
   4    1   15 1
   5    4   10 2
   6    5   10 2
   7    6   13 ar
   8    6   16 ar
   9    7   14 ar
  10    7   16 ar
  11    8   16 1
  12    8   27 1
  13    8   35 1
  14    9   27 2
  15   10   23 1
  16   11   27 1
  17   11   40 1
  18   11   41 1
  19   12   13 ar
  20   12   14 ar
  21   12   17 ar
  22   13   18 ar
  23   14   21 1
  24   15   19 ar
  25   15   20 ar
  26   17   22 ar
  27   17   28 1
  28   18   24 ar
  29   18   29 1
  30   19   25 ar
  31   19   30 1
  32   20   26 ar
  33   20   31 1
  34   21   32 1
  35   21   33 1
  36   21   34 1
  37   22   24 ar
  38   22   36 1
  39   23   25 ar
  40   23   26 ar
  41   24   39 1
  42   25   37 1
  43   26   38 1

#	End of record

#	Name: 9587426
#	Creating user name:	landrgr1
#	Creation time:	28. 01. 2015 13:52

#	Modifying user name:	landrgr1
#	Modification time:	28. 01. 2015 13:52

#	Program:	corina 3.48 0006  22.01.2010

@<TRIPOS>MOLECULE
9587426
  26   27    0    0    0
SMALL
NO_CHARGES


@<TRIPOS>ATOM
   1 Br1            1.7460     3.6293     0.0049 Br      
   2 O2            -0.0162     1.3456     0.0094 O.3     
   3 O3            -2.4092    -0.3485     0.0227 O.3     
   4 O4            -1.0273    -2.0884     0.0011 O.2     
   5 N5            -6.4933    -3.8437     0.0422 N.ar    
   6 N6            -3.3454    -1.1276     0.0275 N.2     
   7 N7            -4.8012     0.6857     0.0501 N.pl3   
   8 C8            -5.7045    -1.6244     0.0469 C.ar    
   9 C9             0.0021    -0.0041     0.0020 C.2     
  10 C10           -4.5666    -0.6775     0.0411 C.2     
  11 C11           -7.0218    -1.1531     0.0615 C.ar    
  12 C12            1.3074    -0.4093    -0.0126 C.2     
  13 C13           -5.4812    -3.0007     0.0374 C.ar    
  14 C14            2.0911     0.7536    -0.0139 C.2     
  15 C15           -8.0499    -2.0794     0.0659 C.ar    
  16 C16           -1.1706    -0.8803     0.0085 C.2     
  17 C17            1.2413     1.8069    -0.0001 C.2     
  18 C18           -7.7453    -3.4288     0.0559 C.ar    
  19 H19           -7.2309    -0.0936     0.0695 H       
  20 H20            1.6659    -1.4280    -0.0212 H       
  21 H21           -4.4697    -3.3788     0.0265 H       
  22 H22            3.1700     0.8000    -0.0236 H       
  23 H23           -9.0791    -1.7523     0.0775 H       
  24 H24           -8.5455    -4.1541     0.0589 H       
  25 H25           -4.0556     1.3062     0.0463 H       
  26 H26           -5.7113     1.0212     0.0603 H       
@<TRIPOS>BOND
   1    1   17 1
   2    2    9 1
   3    2   17 1
   4    3    6 1
   5    3   16 1
   6    4   16 2
   7    5   13 ar
   8    5   18 ar
   9    6   10 2
  10    7   10 1
  11    7   25 1
  12    7   26 1
  13    8   10 1
  14    8   11 ar
  15    8   13 ar
  16    9   12 2
  17    9   16 1
  18   11   15 ar
  19   11   19 1
  20   12   14 1
  21   12   20 1
  22   13   21 1
  23   14   17 2
  24   14   22 1
  25   15   18 ar
  26   15   23 1
  27   18   24 1

#	End of record

#	Name: 9587042
#	Creating user name:	landrgr1
#	Creation time:	28. 01. 2015 13:52

#	Modifying user name:	landrgr1
#	Modification time:	28. 01. 2015 13:52

#	Program:	corina 3.48 0006  22.01.2010

@<TRIPOS>MOLECULE
9587042
  39   40    0    0    0
SMALL
NO_CHARGES


@<TRIPOS>ATOM
   1 O1            -0.0144     1.2138     0.0087 O.3     
   2 O2             2.1975     1.1925    -0.0125 O.2     
   3 N3             0.0021    -0.0041     0.0020 N.2     
   4 N4            -2.3231     0.0049     0.0243 N.pl3   
   5 C5             2.6917     3.7984    -0.0032 C.3     
   6 C6             2.7514     5.3227    -0.1214 C.3     
   7 C7             3.3719     3.3605     1.2953 C.3     
   8 C8             4.2126     5.7764    -0.1329 C.3     
   9 C9             4.8331     3.8142     1.2838 C.3     
  10 C10            4.8928     5.3385     1.1657 C.3     
  11 C11            1.2305     3.3447     0.0083 C.3     
  12 C12            1.1721     1.8389     0.0007 C.2     
  13 C13           -1.1162    -0.6702     0.0091 C.2     
  14 C14           -1.0962    -2.1504     0.0010 C.ar    
  15 C15           -2.2928    -2.8670     0.0086 C.ar    
  16 C16            0.1194    -2.8341    -0.0201 C.ar    
  17 C17           -2.2675    -4.2466     0.0010 C.ar    
  18 C18            0.1316    -4.2139    -0.0275 C.ar    
  19 C19           -1.0586    -4.9190    -0.0137 C.ar    
  20 H20            3.2054     3.3478    -0.8524 H       
  21 H21            2.2668     5.6347    -1.0465 H       
  22 H22            2.2377     5.7733     0.7278 H       
  23 H23            2.8582     3.8111     2.1445 H       
  24 H24            3.3294     2.2746     1.3795 H       
  25 H25            4.7263     5.3258    -0.9821 H       
  26 H26            4.2551     6.8623    -0.2170 H       
  27 H27            5.3177     3.5022     2.2090 H       
  28 H28            5.3468     3.3636     0.4346 H       
  29 H29            5.9338     5.6617     1.1575 H       
  30 H30            4.3791     5.7891     2.0149 H       
  31 H31            0.7397     3.7229     0.9050 H       
  32 H32            0.7227     3.7324    -0.8748 H       
  33 H33           -3.2371    -2.3431     0.0207 H       
  34 H34            1.0491    -2.2847    -0.0309 H       
  35 H35           -3.1934    -4.8026     0.0068 H       
  36 H36            1.0721    -4.7444    -0.0442 H       
  37 H37           -2.3363     0.9748     0.0296 H       
  38 H38           -3.1565    -0.4915     0.0296 H       
  39 H39           -1.0439    -5.9989    -0.0189 H       
@<TRIPOS>BOND
   1    1    3 1
   2    1   12 1
   3    2   12 2
   4    3   13 2
   5    4   13 1
   6    4   37 1
   7    4   38 1
   8    5    6 1
   9    5    7 1
  10    5   11 1
  11    5   20 1
  12    6    8 1
  13    6   21 1
  14    6   22 1
  15    7    9 1
  16    7   23 1
  17    7   24 1
  18    8   10 1
  19    8   25 1
  20    8   26 1
  21    9   10 1
  22    9   27 1
  23    9   28 1
  24   10   29 1
  25   10   30 1
  26   11   12 1
  27   11   31 1
  28   11   32 1
  29   13   14 1
  30   14   15 ar
  31   14   16 ar
  32   15   17 ar
  33   15   33 1
  34   16   18 ar
  35   16   34 1
  36   17   19 ar
  37   17   35 1
  38   18   19 ar
  39   18   36 1
  40   19   39 1

#	End of record

#	Name: 9586326
#	Creating user name:	landrgr1
#	Creation time:	28. 01. 2015 13:52

#	Modifying user name:	landrgr1
#	Modification time:	28. 01. 2015 13:52

#	Program:	corina 3.48 0006  22.01.2010

@<TRIPOS>MOLECULE
9586326
  43   45    0    0    0
SMALL
NO_CHARGES


@<TRIPOS>ATOM
   1 O1            -0.0144     1.2138     0.0087 O.3     
   2 O2             2.5953     3.7685    -0.0025 O.3     
   3 O3             2.1976     1.1926    -0.0125 O.2     
   4 N4            -2.3089     0.0058     0.0241 N.pl3   
   5 N5             0.0021    -0.0041     0.0020 N.2     
   6 C6             1.0539    -2.7880     1.1875 C.ar    
   7 C7             0.3393    -2.6554    -0.0154 C.ar    
   8 C8             2.3957    -3.2433     1.1520 C.ar    
   9 C9            -1.0882    -2.1725     0.0008 C.3     
  10 C10            0.9432    -2.9650    -1.1950 C.ar    
  11 C11            0.4661    -2.4725     2.4241 C.ar    
  12 C12            2.9854    -3.5538    -0.0855 C.ar    
  13 C13            3.1104    -3.3755     2.3544 C.ar    
  14 C14            2.2626    -3.4132    -1.2299 C.ar    
  15 C15            1.1892    -2.6129     3.5688 C.ar    
  16 C16           -1.1086    -0.6656     0.0091 C.2     
  17 C17            2.5066    -3.0654     3.5343 C.ar    
  18 C18            2.8254     5.1079     0.0025 C.ar    
  19 C19            1.2306     3.3447     0.0083 C.3     
  20 C20            1.1721     1.8389     0.0007 C.2     
  21 C21            4.1265     5.5893    -0.0073 C.ar    
  22 C22            1.7597     5.9960     0.0117 C.ar    
  23 C23            4.3578     6.9513    -0.0022 C.ar    
  24 C24            1.9963     7.3570     0.0168 C.ar    
  25 C25            3.2940     7.8343     0.0132 C.ar    
  26 H26           -1.6055    -2.5380    -0.8863 H       
  27 H27           -1.5885    -2.5476     0.8936 H       
  28 H28            0.3918    -2.8622    -2.1179 H       
  29 H29           -0.5539    -2.1202     2.4661 H       
  30 H30            4.0069    -3.9019    -0.1280 H       
  31 H31            4.1334    -3.7216     2.3426 H       
  32 H32            2.7179    -3.6528    -2.1795 H       
  33 H33            0.7351    -2.3697     4.5180 H       
  34 H34            3.0582    -3.1679     4.4572 H       
  35 H35           -2.3220     0.9757     0.0295 H       
  36 H36           -3.1422    -0.4906     0.0294 H       
  37 H37            0.7398     3.7229     0.9050 H       
  38 H38            0.7228     3.7325    -0.8748 H       
  39 H39            4.9578     4.9000    -0.0186 H       
  40 H40            0.7459     5.6237     0.0145 H       
  41 H41            5.3705     7.3266    -0.0098 H       
  42 H42            1.1670     8.0488     0.0240 H       
  43 H43            3.4769     8.8987     0.0180 H       
@<TRIPOS>BOND
   1    1    5 1
   2    1   20 1
   3    2   18 1
   4    2   19 1
   5    3   20 2
   6    4   16 1
   7    4   35 1
   8    4   36 1
   9    5   16 2
  10    6    7 ar
  11    6    8 ar
  12    6   11 ar
  13    7    9 1
  14    7   10 ar
  15    8   12 ar
  16    8   13 ar
  17    9   16 1
  18    9   26 1
  19    9   27 1
  20   10   14 ar
  21   10   28 1
  22   11   15 ar
  23   11   29 1
  24   12   14 ar
  25   12   30 1
  26   13   17 ar
  27   13   31 1
  28   14   32 1
  29   15   17 ar
  30   15   33 1
  31   17   34 1
  32   18   21 ar
  33   18   22 ar
  34   19   20 1
  35   19   37 1
  36   19   38 1
  37   21   23 ar
  38   21   39 1
  39   22   24 ar
  40   22   40 1
  41   23   25 ar
  42   23   41 1
  43   24   25 ar
  44   24   42 1
  45   25   43 1

#	End of record

#	Name: 9586284
#	Creating user name:	landrgr1
#	Creation time:	28. 01. 2015 13:52

#	Modifying user name:	landrgr1
#	Modification time:	28. 01. 2015 13:52

#	Program:	corina 3.48 0006  22.01.2010

@<TRIPOS>MOLECULE
9586284
  35   36    0    0    0
SMALL
NO_CHARGES


@<TRIPOS>ATOM
   1 S1            -0.0218     1.7541     0.0117 S.3     
   2 O2            -9.3653    -1.4789     0.0793 O.3     
   3 O3            -8.9135    -4.1929     0.0503 O.3     
   4 O4            -2.4123    -0.3267     0.0237 O.3     
   5 O5            -1.0466    -2.0790     0.0017 O.2     
   6 N6            -4.7954     0.7298     0.0520 N.pl3   
   7 N7            -3.3556    -1.0972     0.0290 N.2     
   8 C8            -5.7189    -1.5714     0.0494 C.ar    
   9 C9            -8.0920    -1.9563     0.0646 C.ar    
  10 C10           -7.0243    -1.0781     0.0645 C.ar    
  11 C11           -7.8632    -3.3305     0.0497 C.ar    
  12 C12           -5.4964    -2.9489     0.0345 C.ar    
  13 C13           -6.5652    -3.8202     0.0343 C.ar    
  14 C14           -4.5733    -0.6356     0.0430 C.2     
  15 C15            0.0021    -0.0041     0.0020 C.2     
  16 C16           -9.5257    -0.0590     0.0941 C.3     
  17 C17           -8.6069    -5.5885     0.0345 C.3     
  18 C18            1.3003    -0.4333    -0.0127 C.2     
  19 C19           -1.1788    -0.8697     0.0091 C.2     
  20 C20            2.2124     0.5946    -0.0159 C.2     
  21 C21            1.6829     1.8239    -0.0042 C.2     
  22 H22           -7.2001    -0.0126     0.0764 H       
  23 H23           -4.4869    -3.3327     0.0228 H       
  24 H24           -6.3915    -4.8861     0.0227 H       
  25 H25           -4.0442     1.3434     0.0479 H       
  26 H26           -5.7024     1.0736     0.0625 H       
  27 H27           -9.0630     0.3682    -0.7955 H       
  28 H28          -10.5876     0.1866     0.1049 H       
  29 H29           -9.0488     0.3512     0.9843 H       
  30 H30           -8.0345    -5.8247    -0.8625 H       
  31 H31           -8.0197    -5.8415     0.9173 H       
  32 H32           -9.5327    -6.1639     0.0368 H       
  33 H33            1.5808    -1.4762    -0.0210 H       
  34 H34            3.2786     0.4231    -0.0266 H       
  35 H35            2.2580     2.7380    -0.0048 H       
@<TRIPOS>BOND
   1    1   15 1
   2    1   21 1
   3    2    9 1
   4    2   16 1
   5    3   11 1
   6    3   17 1
   7    4    7 1
   8    4   19 1
   9    5   19 2
  10    6   14 1
  11    6   25 1
  12    6   26 1
  13    7   14 2
  14    8   10 ar
  15    8   12 ar
  16    8   14 1
  17    9   10 ar
  18    9   11 ar
  19   10   22 1
  20   11   13 ar
  21   12   13 ar
  22   12   23 1
  23   13   24 1
  24   15   18 2
  25   15   19 1
  26   16   27 1
  27   16   28 1
  28   16   29 1
  29   17   30 1
  30   17   31 1
  31   17   32 1
  32   18   20 1
  33   18   33 1
  34   20   21 2
  35   20   34 1
  36   21   35 1

#	End of record

#	Name: 9581773
#	Creating user name:	landrgr1
#	Creation time:	28. 01. 2015 13:52

#	Modifying user name:	landrgr1
#	Modification time:	28. 01. 2015 13:52

#	Program:	corina 3.48 0006  22.01.2010

@<TRIPOS>MOLECULE
9581773
  34   36    0    0    0
SMALL
NO_CHARGES


@<TRIPOS>ATOM
   1 F1            -7.2641     2.0911     3.9522 F       
   2 F2            -5.0293     2.4636     3.6589 F       
   3 F3            -5.7705     1.3749     5.5256 F       
   4 O4            -2.8017     1.0543     0.0228 O.2     
   5 O5            -0.0171     1.4118     0.0098 O.3     
   6 N6            -3.3500    -1.1615     0.0286 N.am    
   7 N7             0.0021    -0.0041     0.0020 N.2     
   8 C8            -4.8091    -1.0304     0.0438 C.3     
   9 C9            -2.6731    -2.3774     0.0153 C.ar    
  10 C10           -1.2923    -2.1427     0.0029 C.ar    
  11 C11           -5.2953    -0.9932     1.4697 C.ar    
  12 C12           -2.4976    -0.1225     0.0200 C.2     
  13 C13           -1.1167    -0.6705     0.0091 C.2     
  14 C14           -3.1346    -3.6886     0.0132 C.ar    
  15 C15           -0.3980    -3.2062    -0.0121 C.ar    
  16 C16           -5.4111     0.2160     2.1290 C.ar    
  17 C17           -5.6308    -2.1681     2.1166 C.ar    
  18 C18           -5.8571     0.2502     3.4372 C.ar    
  19 C19           -2.2386    -4.7393    -0.0010 C.ar    
  20 C20           -0.8750    -4.5026    -0.0148 C.ar    
  21 C21           -6.0767    -2.1340     3.4244 C.ar    
  22 C22           -6.1876    -0.9248     4.0856 C.ar    
  23 C23           -5.9825     1.5686     4.1564 C.3     
  24 H24           -5.0964    -0.1088    -0.4622 H       
  25 H25           -5.2557    -1.8816    -0.4702 H       
  26 H26           -4.1964    -3.8861     0.0227 H       
  27 H27            0.6657    -3.0199    -0.0220 H       
  28 H28           -5.1529     1.1342     1.6224 H       
  29 H29           -5.5449    -3.1126     1.5999 H       
  30 H30           -2.6052    -5.7552    -0.0022 H       
  31 H31           -0.1834    -5.3321    -0.0265 H       
  32 H32           -6.3392    -3.0518     3.9295 H       
  33 H33           -6.5357    -0.8982     5.1076 H       
  34 H34            0.8608     1.8171     0.0036 H       
@<TRIPOS>BOND
   1    1   23 1
   2    2   23 1
   3    3   23 1
   4    4   12 2
   5    5    7 1
   6    5   34 1
   7    6    8 1
   8    6    9 1
   9    6   12 am
  10    7   13 2
  11    8   11 1
  12    8   24 1
  13    8   25 1
  14    9   10 ar
  15    9   14 ar
  16   10   13 1
  17   10   15 ar
  18   11   16 ar
  19   11   17 ar
  20   12   13 1
  21   14   19 ar
  22   14   26 1
  23   15   20 ar
  24   15   27 1
  25   16   18 ar
  26   16   28 1
  27   17   21 ar
  28   17   29 1
  29   18   22 ar
  30   18   23 1
  31   19   20 ar
  32   19   30 1
  33   20   31 1
  34   21   22 ar
  35   21   32 1
  36   22   33 1

#	End of record

#	Name: 9567389
#	Creating user name:	landrgr1
#	Creation time:	28. 01. 2015 13:52

#	Modifying user name:	landrgr1
#	Modification time:	28. 01. 2015 13:52

#	Program:	corina 3.48 0006  22.01.2010

@<TRIPOS>MOLECULE
9567389
  46   47    0    0    0
SMALL
NO_CHARGES


@<TRIPOS>ATOM
   1 O1            -0.0164     1.3558     0.0095 O.3     
   2 O2            -2.3800    -0.0526     0.0240 O.3     
   3 O3             4.4803    -8.2424    -0.1021 O.3     
   4 O4             6.1161   -12.7075    -0.1505 O.3     
   5 O5             3.5857    -4.7019    -0.0694 O.3     
   6 O6             2.4544    -6.6029    -0.0642 O.2     
   7 N7             3.7027    -2.0977    -0.0564 N.pl3   
   8 N8             2.5249    -4.1035    -0.0511 N.2     
   9 C9             1.2238    -2.0745    -0.0212 C.ar    
  10 C10            0.0021    -0.0041     0.0020 C.ar    
  11 C11            1.2084    -0.6790    -0.0131 C.ar    
  12 C12           -1.1948    -0.7172     0.0092 C.ar    
  13 C13            0.0216    -2.7830    -0.0140 C.ar    
  14 C14           -1.1788    -2.1045     0.0006 C.ar    
  15 C15            2.5120    -2.8012    -0.0435 C.2     
  16 C16            5.5218    -9.1150    -0.1217 C.ar    
  17 C17            5.2827   -10.4808    -0.1261 C.ar    
  18 C18            6.3472   -11.3684    -0.1466 C.ar    
  19 C19            6.8253    -8.6400    -0.1433 C.ar    
  20 C20            7.6494   -10.8883    -0.1628 C.ar    
  21 C21            7.8849    -9.5270    -0.1642 C.ar    
  22 C22            4.8007    -6.8497    -0.0987 C.3     
  23 C23            3.5288    -6.0417    -0.0762 C.2     
  24 C24            1.2479     2.0218     0.0010 C.3     
  25 C25           -3.5685    -0.8460     0.0306 C.3     
  26 C26            7.2603   -13.5633    -0.1720 C.3     
  27 H27            2.1370    -0.1276    -0.0183 H       
  28 H28            0.0313    -3.8630    -0.0206 H       
  29 H29           -2.1085    -2.6541     0.0058 H       
  30 H30            4.2688   -10.8525    -0.1131 H       
  31 H31            7.0120    -7.5763    -0.1440 H       
  32 H32            8.4791   -11.5794    -0.1784 H       
  33 H33            8.8988    -9.1553    -0.1816 H       
  34 H34            5.3954    -6.6159     0.7843 H       
  35 H35            5.3703    -6.6058    -0.9955 H       
  36 H36            4.5475    -2.5742    -0.0710 H       
  37 H37            3.6931    -1.1278    -0.0508 H       
  38 H38            1.8173     1.7317     0.8840 H       
  39 H39            1.8003     1.7413    -0.8958 H       
  40 H40            1.0905     3.1003     0.0083 H       
  41 H41           -4.4412    -0.1930     0.0425 H       
  42 H42           -3.5938    -1.4700    -0.8627 H       
  43 H43           -3.5772    -1.4802     0.9171 H       
  44 H44            6.9358   -14.6039    -0.1729 H       
  45 H45            7.8458   -13.3646    -1.0697 H       
  46 H46            7.8721   -13.3743     0.7101 H       
@<TRIPOS>BOND
   1    1   10 1
   2    1   24 1
   3    2   12 1
   4    2   25 1
   5    3   16 1
   6    3   22 1
   7    4   18 1
   8    4   26 1
   9    5    8 1
  10    5   23 1
  11    6   23 2
  12    7   15 1
  13    7   36 1
  14    7   37 1
  15    8   15 2
  16    9   11 ar
  17    9   13 ar
  18    9   15 1
  19   10   11 ar
  20   10   12 ar
  21   11   27 1
  22   12   14 ar
  23   13   14 ar
  24   13   28 1
  25   14   29 1
  26   16   17 ar
  27   16   19 ar
  28   17   18 ar
  29   17   30 1
  30   18   20 ar
  31   19   21 ar
  32   19   31 1
  33   20   21 ar
  34   20   32 1
  35   21   33 1
  36   22   23 1
  37   22   34 1
  38   22   35 1
  39   24   38 1
  40   24   39 1
  41   24   40 1
  42   25   41 1
  43   25   42 1
  44   25   43 1
  45   26   44 1
  46   26   45 1
  47   26   46 1

#	End of record

#	Name: 9556704
#	Creating user name:	landrgr1
#	Creation time:	28. 01. 2015 13:52

#	Modifying user name:	landrgr1
#	Modification time:	28. 01. 2015 13:52

#	Program:	corina 3.48 0006  22.01.2010

@<TRIPOS>MOLECULE
9556704
  28   29    0    0    0
SMALL
NO_CHARGES


@<TRIPOS>ATOM
   1 O1            -2.8017     1.0542     0.0350 O.2     
   2 O2            -0.0171     1.4118     0.0098 O.3     
   3 N3            -3.3499    -1.1616     0.0291 N.am    
   4 N4             0.0021    -0.0041     0.0020 N.2     
   5 C5            -2.6727    -2.3774     0.0156 C.ar    
   6 C6            -1.2923    -2.1427     0.0029 C.ar    
   7 C7            -1.1167    -0.6705     0.0091 C.2     
   8 C8            -2.4975    -0.1226     0.0261 C.2     
   9 C9            -4.8090    -1.0309     0.0390 C.3     
  10 C10           -0.3977    -3.2065    -0.0116 C.ar    
  11 C11           -3.1343    -3.6891     0.0136 C.ar    
  12 C12           -0.8745    -4.5025    -0.0134 C.ar    
  13 C13           -2.2385    -4.7394    -0.0008 C.ar    
  14 C14            0.0906    -5.6598    -0.0296 C.3     
  15 C15           -5.3007    -0.9970     1.4631 C.2     
  16 C16           -6.0438    -0.0002     1.8760 C.2     
  17 H17           -5.0945    -0.1080    -0.4660 H       
  18 H18           -5.2535    -1.8809    -0.4787 H       
  19 H19            0.6660    -3.0202    -0.0217 H       
  20 H20           -4.1960    -3.8867     0.0237 H       
  21 H21           -2.6051    -5.7553    -0.0023 H       
  22 H22            0.3340    -5.9442     0.9941 H       
  23 H23           -0.3656    -6.5062    -0.5431 H       
  24 H24            1.0014    -5.3661    -0.5514 H       
  25 H25           -5.0405    -1.7945     2.1434 H       
  26 H26           -6.3040     0.7972     1.1957 H       
  27 H27           -6.3962     0.0240     2.8966 H       
  28 H28            0.8608     1.8171     0.0036 H       
@<TRIPOS>BOND
   1    1    8 2
   2    2    4 1
   3    2   28 1
   4    3    5 1
   5    3    8 am
   6    3    9 1
   7    4    7 2
   8    5    6 ar
   9    5   11 ar
  10    6    7 1
  11    6   10 ar
  12    7    8 1
  13    9   15 1
  14    9   17 1
  15    9   18 1
  16   10   12 ar
  17   10   19 1
  18   11   13 ar
  19   11   20 1
  20   12   13 ar
  21   12   14 1
  22   13   21 1
  23   14   22 1
  24   14   23 1
  25   14   24 1
  26   15   16 2
  27   15   25 1
  28   16   26 1
  29   16   27 1

#	End of record

#	Name: 9552053
#	Creating user name:	landrgr1
#	Creation time:	28. 01. 2015 13:52

#	Modifying user name:	landrgr1
#	Modification time:	28. 01. 2015 13:52

#	Program:	corina 3.48 0006  22.01.2010

@<TRIPOS>MOLECULE
9552053
  48   52    0    0    0
SMALL
NO_CHARGES


@<TRIPOS>ATOM
   1 S1            -0.0225     1.8057     0.0120 S.3     
   2 O2            -3.6044    -1.2397     2.1234 O.3     
   3 O3            -2.3445     0.2501     0.0258 O.2     
   4 O4             0.8726    -7.8701    -0.1599 O.3     
   5 N5            -1.6400    -1.8540     0.0078 N.am    
   6 N6            -0.6664    -2.8599    -0.0065 N.2     
   7 N7             2.2858     3.3564    -0.0017 N.pl3   
   8 N8             2.6690     1.2352    -0.0163 N.2     
   9 N9             3.6728     3.1373    -0.0157 N.2     
  10 C10           -2.6149    -3.9033     0.5802 C.3     
  11 C11           -2.9659    -2.5132     0.0228 C.3     
  12 C12           -3.3399    -5.0175    -0.1771 C.3     
  13 C13           -1.1408    -4.0378     0.2139 C.2     
  14 C14           -2.8040    -6.3590     0.3182 C.3     
  15 C15           -1.3279    -6.5580     0.0406 C.3     
  16 C16           -0.5163    -5.2995     0.0926 C.2     
  17 C17           -3.9186    -1.7890     0.9388 C.2     
  18 C18           -1.4117    -0.5257     0.0127 C.2     
  19 C19            0.8339    -5.3723     0.0218 C.2     
  20 C20           -5.2279    -1.5836     0.7089 C.2     
  21 C21            0.0021    -0.0041     0.0020 C.3     
  22 C22            1.4902    -6.6726    -0.1039 C.2     
  23 C23           -5.7316    -0.8688     1.8199 C.2     
  24 C24           -4.7000    -0.6802     2.6622 C.2     
  25 C25            2.8382    -6.8880    -0.1849 C.2     
  26 C26            3.0193    -8.2779    -0.2935 C.2     
  27 C27            1.7930    -8.8412    -0.2744 C.2     
  28 C28            1.7084     2.1353    -0.0028 C.2     
  29 C29            3.8552     1.8442    -0.0241 C.2     
  30 H30           -2.7864    -3.9658     1.6548 H       
  31 H31           -3.3761    -2.5884    -0.9843 H       
  32 H32           -4.4110    -4.9560     0.0150 H       
  33 H33           -3.1513    -4.9185    -1.2461 H       
  34 H34           -2.9692    -6.4255     1.3936 H       
  35 H35           -3.3618    -7.1591    -0.1683 H       
  36 H36           -0.9288    -7.2580     0.7746 H       
  37 H37           -1.2183    -7.0001    -0.9497 H       
  38 H38            1.4260    -4.4698     0.0582 H       
  39 H39           -5.7869    -1.9029    -0.1582 H       
  40 H40            0.5123    -0.3556    -0.8948 H       
  41 H41            0.5293    -0.3651     0.8851 H       
  42 H42           -6.7494    -0.5375     1.9643 H       
  43 H43           -4.7452    -0.1661     3.6109 H       
  44 H44            3.6133    -6.1362    -0.1685 H       
  45 H45            3.9625    -8.7973    -0.3763 H       
  46 H46            1.5859    -9.8991    -0.3406 H       
  47 H47            1.8326     4.2139     0.0104 H       
  48 H48            4.8141     1.3473    -0.0352 H       
@<TRIPOS>BOND
   1    1   21 1
   2    1   28 1
   3    2   17 1
   4    2   24 1
   5    3   18 2
   6    4   22 1
   7    4   27 1
   8    5    6 1
   9    5   11 1
  10    5   18 am
  11    6   13 2
  12    7    9 1
  13    7   28 1
  14    7   47 1
  15    8   28 2
  16    8   29 1
  17    9   29 2
  18   10   11 1
  19   10   12 1
  20   10   13 1
  21   10   30 1
  22   11   17 1
  23   11   31 1
  24   12   14 1
  25   12   32 1
  26   12   33 1
  27   13   16 1
  28   14   15 1
  29   14   34 1
  30   14   35 1
  31   15   16 1
  32   15   36 1
  33   15   37 1
  34   16   19 2
  35   17   20 2
  36   18   21 1
  37   19   22 1
  38   19   38 1
  39   20   23 1
  40   20   39 1
  41   21   40 1
  42   21   41 1
  43   22   25 2
  44   23   24 2
  45   23   42 1
  46   24   43 1
  47   25   26 1
  48   25   44 1
  49   26   27 2
  50   26   45 1
  51   27   46 1
  52   29   48 1

#	End of record

#	Name: 9552045
#	Creating user name:	landrgr1
#	Creation time:	28. 01. 2015 13:52

#	Modifying user name:	landrgr1
#	Modification time:	28. 01. 2015 13:52

#	Program:	corina 3.48 0006  22.01.2010

@<TRIPOS>MOLECULE
9552045
  36   37    0    0    0
SMALL
NO_CHARGES


@<TRIPOS>ATOM
   1 Cl1           -6.5560    -0.4582     1.0743 Cl      
   2 S2             0.1039     1.7704     0.1639 S.3     
   3 O3            -2.2784    -4.4523     0.6601 O.3     
   4 O4            -2.2129     0.1668    -0.2920 O.2     
   5 N5            -1.6223    -1.7541     0.6480 N.am    
   6 N6             2.4467     3.2851     0.3802 N.pl3   
   7 N7             2.7762     1.1571     0.4124 N.2     
   8 N8             3.9226     1.7266     0.5281 N.2     
   9 C9             0.0936    -0.0396     0.1636 C.3     
  10 C10           -1.3301    -0.5338     0.1564 C.2     
  11 C11           -2.9573    -2.1678     0.7484 C.ar    
  12 C12            0.8183    -0.5536    -1.0820 C.3     
  13 C13            1.8335     2.0665     0.3239 C.2     
  14 C14           -3.2691    -3.5253     0.7535 C.ar    
  15 C15           -3.9712    -1.2264     0.8488 C.ar    
  16 C16           -4.5905    -3.9292     0.8534 C.ar    
  17 C17           -5.2880    -1.6372     0.9482 C.ar    
  18 C18           -5.5969    -2.9861     0.9474 C.ar    
  19 C19            1.8063     4.6013     0.3196 C.3     
  20 C20            3.7824     3.0219     0.5109 C.2     
  21 C21           -2.6722    -5.8260     0.6715 C.3     
  22 H22            0.6008    -0.4059     1.0562 H       
  23 H23            0.8120    -1.6435    -1.0821 H       
  24 H24            0.3111    -0.1872    -1.9745 H       
  25 H25            1.8480    -0.1961    -1.0767 H       
  26 H26           -0.9084    -2.3461     0.9324 H       
  27 H27           -3.7324    -0.1731     0.8496 H       
  28 H28           -4.8346    -4.9813     0.8575 H       
  29 H29           -6.6265    -3.3029     1.0245 H       
  30 H30            1.5521     4.9284     1.3278 H       
  31 H31            2.4913     5.3182    -0.1331 H       
  32 H32            0.8990     4.5366    -0.2809 H       
  33 H33            4.5743     3.7524     0.5856 H       
  34 H34           -3.1931    -6.0469     1.6032 H       
  35 H35           -3.3359    -6.0207    -0.1709 H       
  36 H36           -1.7879    -6.4581     0.5911 H       
@<TRIPOS>BOND
   1    1   17 1
   2    2    9 1
   3    2   13 1
   4    3   14 1
   5    3   21 1
   6    4   10 2
   7    5   10 am
   8    5   11 1
   9    5   26 1
  10    6   13 1
  11    6   19 1
  12    6   20 1
  13    7    8 1
  14    7   13 2
  15    8   20 2
  16    9   10 1
  17    9   12 1
  18    9   22 1
  19   11   14 ar
  20   11   15 ar
  21   12   23 1
  22   12   24 1
  23   12   25 1
  24   14   16 ar
  25   15   17 ar
  26   15   27 1
  27   16   18 ar
  28   16   28 1
  29   17   18 ar
  30   18   29 1
  31   19   30 1
  32   19   31 1
  33   19   32 1
  34   20   33 1
  35   21   34 1
  36   21   35 1
  37   21   36 1

#	End of record

#	Name: 9552033
#	Creating user name:	landrgr1
#	Creation time:	28. 01. 2015 13:52

#	Modifying user name:	landrgr1
#	Modification time:	28. 01. 2015 13:52

#	Program:	corina 3.48 0006  22.01.2010

@<TRIPOS>MOLECULE
9552033
  37   37    0    0    0
SMALL
NO_CHARGES


@<TRIPOS>ATOM
   1 Cl1            0.0827    -4.4228    -0.0234 Cl      
   2 S2            -0.0218     1.7577     0.0117 S.3     
   3 O3            -3.5051    -2.1142     0.0250 O.co2   
   4 O4            -2.4550    -3.9519     0.0039 O.co2   
   5 N5            -1.1446    -0.6632     0.0094 N.ar    
   6 N6             1.1697    -0.6337    -0.0129 N.ar    
   7 C7            -1.1627    -1.9944     0.0020 C.ar    
   8 C8             0.0501    -2.6871    -0.0138 C.ar    
   9 C9             0.0021    -0.0041     0.0020 C.ar    
  10 C10            1.2309    -1.9525    -0.0211 C.ar    
  11 C11           -2.4495    -2.7299     0.0108 C.2     
  12 C12            1.7562     2.0963    -0.0035 C.3     
  13 H13            2.1868    -2.4550    -0.0336 H       
  14 H14            2.2177     1.6547     0.8798 H       
  15 H15            2.2007     1.6643    -0.9001 H       
  16 H16            1.9209     3.1737     0.0008 H       
  17 N17            9.1603    15.5233     8.0319 N.4     
  18 C18            7.7448    13.5249     8.0347 C.3     
  19 C19            9.1802    14.0544     8.0238 C.3     
  20 C20            7.7653    12.0180     8.0264 C.ar    
  21 C21            7.7861    11.3205     9.2197 C.ar    
  22 C22            7.7575    11.3333     6.8256 C.ar    
  23 C23            7.8049     9.9383     9.2121 C.ar    
  24 C24            7.7763     9.9511     6.8180 C.ar    
  25 C25            7.8024     9.2536     8.0112 C.ar    
  26 H26            7.2347    13.8764     8.9315 H       
  27 H27            7.2177    13.8859     7.1516 H       
  28 H28            9.6904    13.7029     7.1270 H       
  29 H29            9.7074    13.6934     8.9069 H       
  30 H30           10.1069    15.8725     8.0247 H       
  31 H31            8.6723    15.8575     7.2145 H       
  32 H32            8.6880    15.8487     8.8621 H       
  33 H33            7.7880    11.8554    10.1579 H       
  34 H34            7.7364    11.8782     5.8934 H       
  35 H35            7.8218     9.3933    10.1443 H       
  36 H36            7.7698     9.4161     5.8798 H       
  37 H37            7.8174     8.1737     8.0053 H       
@<TRIPOS>BOND
   1    1    8 1
   2    2    9 1
   3    2   12 1
   4    3   11 ar
   5    4   11 ar
   6    5    7 ar
   7    5    9 ar
   8    6    9 ar
   9    6   10 ar
  10    7    8 ar
  11    7   11 1
  12    8   10 ar
  13   10   13 1
  14   12   14 1
  15   12   15 1
  16   12   16 1
  17   17   19 1
  18   17   30 1
  19   17   31 1
  20   17   32 1
  21   18   19 1
  22   18   20 1
  23   18   26 1
  24   18   27 1
  25   19   28 1
  26   19   29 1
  27   20   21 ar
  28   20   22 ar
  29   21   23 ar
  30   21   33 1
  31   22   24 ar
  32   22   34 1
  33   23   25 ar
  34   23   35 1
  35   24   25 ar
  36   24   36 1
  37   25   37 1

#	End of record

#	Name: 9552017
#	Creating user name:	landrgr1
#	Creation time:	28. 01. 2015 13:52

#	Modifying user name:	landrgr1
#	Modification time:	28. 01. 2015 13:52

#	Program:	corina 3.48 0006  22.01.2010

@<TRIPOS>MOLECULE
9552017
  55   57    0    0    0
SMALL
NO_CHARGES


@<TRIPOS>ATOM
   1 Cl1           -2.1440    -8.9651    -0.5605 Cl      
   2 O2             0.2767     1.0392     0.4820 O.3     
   3 O3             1.0233    -1.0403     0.5213 O.2     
   4 O4            -2.9710    -2.3845    -1.3115 O.2     
   5 O5             6.4576     5.7032     1.7854 O.3     
   6 O6             0.6201     3.6275     0.6586 O.2     
   7 O7             5.4131     9.0001     1.4524 O.2     
   8 N8            -1.2307    -2.2976     0.0656 N.am    
   9 N9             4.1556     7.1671     1.4451 N.am    
  10 C10           -2.2373    -0.4043     1.2418 C.3     
  11 C11           -1.2895    -0.8348     0.1206 C.3     
  12 C12           -2.4165     1.1147     1.2029 C.3     
  13 C13           -1.6482    -0.8139     2.5931 C.3     
  14 C14            0.0883    -0.2865     0.3893 C.2     
  15 C15           -3.1166     1.5125    -0.0980 C.3     
  16 C16           -2.1456    -2.9824    -0.6489 C.2     
  17 C17            1.6301     1.4961     0.7423 C.3     
  18 C18           -2.1454    -4.4601    -0.6269 C.ar    
  19 C19            2.9082     3.7102     1.0679 C.ar    
  20 C20            1.6474     3.0014     0.8127 C.2     
  21 C21            4.1153     5.7667     1.3741 C.ar    
  22 C22            2.9262     5.1092     1.1336 C.ar    
  23 C23            5.2961     5.0399     1.5505 C.ar    
  24 C24            4.0950     2.9890     1.2470 C.ar    
  25 C25           -3.0918    -5.1722    -1.3661 C.ar    
  26 C26           -1.1950    -5.1496     0.1285 C.ar    
  27 C27            5.2774     3.6537     1.4859 C.ar    
  28 C28            6.6056     6.9817     1.1626 C.3     
  29 C29            5.3504     7.7920     1.3640 C.2     
  30 C30           -3.0863    -6.5509    -1.3419 C.ar    
  31 C31           -1.1995    -6.5284     0.1448 C.ar    
  32 C32           -2.1443    -7.2293    -0.5864 C.ar    
  33 H33           -3.2046    -0.8878     1.1055 H       
  34 H34           -1.6544    -0.4498    -0.8316 H       
  35 H35           -3.0216     1.4310     2.0526 H       
  36 H36           -1.4403     1.5971     1.2524 H       
  37 H37           -0.6809    -0.3304     2.7294 H       
  38 H38           -2.3235    -0.5072     3.3918 H       
  39 H39           -1.5206    -1.8961     2.6208 H       
  40 H40           -0.5334    -2.7733     0.5434 H       
  41 H41           -2.5252     1.1717    -0.9478 H       
  42 H42           -4.1041     1.0524    -0.1346 H       
  43 H43           -3.2194     2.5969    -0.1384 H       
  44 H44            1.9767     1.0841     1.6901 H       
  45 H45            2.2871     1.1624    -0.0609 H       
  46 H46            2.0139     5.6707     0.9964 H       
  47 H47            4.0834     1.9102     1.1970 H       
  48 H48            6.1916     3.0952     1.6228 H       
  49 H49           -3.8271    -4.6442    -1.9552 H       
  50 H50           -0.4576    -4.6041     0.6987 H       
  51 H51            3.3382     7.6787     1.5503 H       
  52 H52            7.4513     7.5062     1.6073 H       
  53 H53            6.7832     6.8471     0.0956 H       
  54 H54           -3.8182    -7.1028    -1.9130 H       
  55 H55           -0.4648    -7.0629     0.7288 H       
@<TRIPOS>BOND
   1    1   32 1
   2    2   14 1
   3    2   17 1
   4    3   14 2
   5    4   16 2
   6    5   23 1
   7    5   28 1
   8    6   20 2
   9    7   29 2
  10    8   11 1
  11    8   16 am
  12    8   40 1
  13    9   21 1
  14    9   29 am
  15    9   51 1
  16   10   11 1
  17   10   12 1
  18   10   13 1
  19   10   33 1
  20   11   14 1
  21   11   34 1
  22   12   15 1
  23   12   35 1
  24   12   36 1
  25   13   37 1
  26   13   38 1
  27   13   39 1
  28   15   41 1
  29   15   42 1
  30   15   43 1
  31   16   18 1
  32   17   20 1
  33   17   44 1
  34   17   45 1
  35   18   25 ar
  36   18   26 ar
  37   19   20 1
  38   19   22 ar
  39   19   24 ar
  40   21   22 ar
  41   21   23 ar
  42   22   46 1
  43   23   27 ar
  44   24   27 ar
  45   24   47 1
  46   25   30 ar
  47   25   49 1
  48   26   31 ar
  49   26   50 1
  50   27   48 1
  51   28   29 1
  52   28   52 1
  53   28   53 1
  54   30   32 ar
  55   30   54 1
  56   31   32 ar
  57   31   55 1

#	End of record

#	Name: 9552006
#	Creating user name:	landrgr1
#	Creation time:	28. 01. 2015 13:52

#	Modifying user name:	landrgr1
#	Modification time:	28. 01. 2015 13:52

#	Program:	corina 3.48 0006  22.01.2010

@<TRIPOS>MOLECULE
9552006
  39   40    0    0    0
SMALL
NO_CHARGES


@<TRIPOS>ATOM
   1 S1            -0.2739     1.7340     0.1644 S.3     
   2 O2             3.8387     3.6405    -2.1801 O.3     
   3 O3             5.2849     3.7047     0.1969 O.3     
   4 O4            -2.4338    -0.0910    -0.0447 O.2     
   5 O5            -3.7719    -1.7711    -0.9591 O.2     
   6 N6            -1.5666    -1.7604    -1.2201 N.am    
   7 N7            -2.9023    -3.4418    -2.1357 N.am    
   8 C8             3.2785     3.2201    -1.0130 C.ar    
   9 C9             4.0011     3.2493     0.1740 C.ar    
  10 C10           -0.0872    -0.0146    -0.2808 C.3     
  11 C11            1.3871     2.3220     0.1666 C.ar    
  12 C12            5.0190     4.4440    -2.0752 C.3     
  13 C13            5.9625     3.7818    -1.0620 C.3     
  14 C14            1.9715     2.7574    -1.0151 C.ar    
  15 C15            3.4146     2.8125     1.3526 C.ar    
  16 C16            2.1131     2.3498     1.3506 C.ar    
  17 C17            0.6224    -0.7567     0.8535 C.3     
  18 C18           -1.4472    -0.6236    -0.5060 C.2     
  19 C19           -2.7829    -2.3050    -1.4215 C.2     
  20 C20           -4.2243    -4.0338    -2.3546 C.3     
  21 C21           -4.0806    -5.3082    -3.1890 C.3     
  22 H22            0.5031    -0.0962    -1.1935 H       
  23 H23            5.5086     4.5068    -3.0470 H       
  24 H24            4.7537     5.4438    -1.7314 H       
  25 H25            6.8671     4.3806    -0.9566 H       
  26 H26            6.2222     2.7791    -1.4017 H       
  27 H27            1.4078     2.7360    -1.9361 H       
  28 H28            3.9771     2.8341     2.2743 H       
  29 H29            1.6595     2.0103     2.2701 H       
  30 H30            1.6395    -0.3782     0.9549 H       
  31 H31            0.0810    -0.5979     1.7862 H       
  32 H32            0.6522    -1.8226     0.6276 H       
  33 H33           -0.7772    -2.1865    -1.5892 H       
  34 H34           -4.6768    -4.2779    -1.3934 H       
  35 H35           -4.8579    -3.3223    -2.8842 H       
  36 H36           -2.1129    -3.8679    -2.5047 H       
  37 H37           -5.0643    -5.7487    -3.3518 H       
  38 H38           -3.6282    -5.0641    -4.1501 H       
  39 H39           -3.4471    -6.0197    -2.6594 H       
@<TRIPOS>BOND
   1    1   10 1
   2    1   11 1
   3    2    8 1
   4    2   12 1
   5    3    9 1
   6    3   13 1
   7    4   18 2
   8    5   19 2
   9    6   18 am
  10    6   19 am
  11    6   33 1
  12    7   19 am
  13    7   20 1
  14    7   36 1
  15    8    9 ar
  16    8   14 ar
  17    9   15 ar
  18   10   17 1
  19   10   18 1
  20   10   22 1
  21   11   14 ar
  22   11   16 ar
  23   12   13 1
  24   12   23 1
  25   12   24 1
  26   13   25 1
  27   13   26 1
  28   14   27 1
  29   15   16 ar
  30   15   28 1
  31   16   29 1
  32   17   30 1
  33   17   31 1
  34   17   32 1
  35   20   21 1
  36   20   34 1
  37   20   35 1
  38   21   37 1
  39   21   38 1
  40   21   39 1

#	End of record

#	Name: 9551958
#	Creating user name:	landrgr1
#	Creation time:	28. 01. 2015 13:52

#	Modifying user name:	landrgr1
#	Modification time:	28. 01. 2015 13:52

#	Program:	corina 3.48 0006  22.01.2010

@<TRIPOS>MOLECULE
9551958
  38   40    0    0    0
SMALL
NO_CHARGES


@<TRIPOS>ATOM
   1 O1            -0.1460     1.3099    -0.1484 O.3     
   2 O2             1.3095     3.0351    -0.1102 O.2     
   3 O3             4.3477    -4.1644     0.7364 O.2     
   4 N4             2.5869    -3.1131    -0.1168 N.am    
   5 N5             3.3876     0.9641     0.0026 N.2     
   6 N6             4.0566    -4.3326    -1.4592 N.am    
   7 C7             1.3843    -0.5344    -0.0613 C.3     
   8 C8             1.6681    -1.3085     1.2001 C.ar    
   9 C9            -0.0998    -0.1392    -0.1279 C.3     
  10 C10            2.1201     0.7900    -0.0478 C.2     
  11 C11            2.2570    -2.5643     1.1275 C.ar    
  12 C12            1.3481    -0.7677     2.4298 C.ar    
  13 C13            1.0795     1.8433    -0.1044 C.2     
  14 C14            2.5172    -3.2742     2.2921 C.ar    
  15 C15            1.6091    -1.4771     3.5879 C.ar    
  16 C16            2.1900    -2.7299     3.5187 C.ar    
  17 C17            3.6876    -3.8803    -0.2444 C.2     
  18 C18            5.1425    -5.2069    -1.5801 C.ar    
  19 C19            5.1267    -6.2068    -2.5437 C.ar    
  20 C20            6.2405    -5.0730    -0.7406 C.ar    
  21 C21            6.2002    -7.0679    -2.6607 C.ar    
  22 C22            7.3108    -5.9373    -0.8628 C.ar    
  23 C23            7.2898    -6.9352    -1.8198 C.ar    
  24 H24            1.6632    -1.1193    -0.9378 H       
  25 H25           -0.6259    -0.5166     0.7489 H       
  26 H26           -0.5519    -0.5395    -1.0354 H       
  27 H27            0.8940     0.2105     2.4871 H       
  28 H28            2.9747    -4.2511     2.2389 H       
  29 H29            2.0233    -2.9414    -0.8874 H       
  30 H30            1.3582    -1.0518     4.5485 H       
  31 H31            2.3922    -3.2815     4.4249 H       
  32 H32            3.7540     1.8623     0.0063 H       
  33 H33            3.5695    -4.0520    -2.2497 H       
  34 H34            4.2758    -6.3112    -3.2005 H       
  35 H35            6.2577    -4.2936     0.0068 H       
  36 H36            6.1884    -7.8460    -3.4097 H       
  37 H37            8.1651    -5.8336    -0.2102 H       
  38 H38            8.1279    -7.6100    -1.9131 H       
@<TRIPOS>BOND
   1    1    9 1
   2    1   13 1
   3    2   13 2
   4    3   17 2
   5    4   11 1
   6    4   17 am
   7    4   29 1
   8    5   10 2
   9    5   32 1
  10    6   17 am
  11    6   18 1
  12    6   33 1
  13    7    8 1
  14    7    9 1
  15    7   10 1
  16    7   24 1
  17    8   11 ar
  18    8   12 ar
  19    9   25 1
  20    9   26 1
  21   10   13 1
  22   11   14 ar
  23   12   15 ar
  24   12   27 1
  25   14   16 ar
  26   14   28 1
  27   15   16 ar
  28   15   30 1
  29   16   31 1
  30   18   19 ar
  31   18   20 ar
  32   19   21 ar
  33   19   34 1
  34   20   22 ar
  35   20   35 1
  36   21   23 ar
  37   21   36 1
  38   22   23 ar
  39   22   37 1
  40   23   38 1

#	End of record

#	Name: 9551934
#	Creating user name:	landrgr1
#	Creation time:	28. 01. 2015 13:52

#	Modifying user name:	landrgr1
#	Modification time:	28. 01. 2015 13:52

#	Program:	corina 3.48 0006  22.01.2010

@<TRIPOS>MOLECULE
9551934
  40   43    0    0    0
SMALL
NO_CHARGES


@<TRIPOS>ATOM
   1 S1             0.1694     1.7036    -0.0379 S.3     
   2 O2            -5.1263    -5.2003     0.5315 O.3     
   3 O3            -6.7649    -3.7204     1.0374 O.3     
   4 O4            -2.2659     0.2182    -0.1382 O.2     
   5 N5            -1.6223    -1.7541     0.6480 N.am    
   6 N6             2.7254     0.8713    -0.2467 N.ar    
   7 N7             4.6242     2.1926    -0.3537 N.ar    
   8 C8             0.0714    -0.1033    -0.0764 C.3     
   9 C9            -2.9483    -2.1920     0.7606 C.ar    
  10 C10           -4.5673    -3.9632     0.6744 C.ar    
  11 C11           -5.5744    -3.0527     0.9855 C.ar    
  12 C12           -1.3562    -0.5337     0.1418 C.2     
  13 C13           -3.2563    -3.5309     0.5627 C.ar    
  14 C14           -3.9543    -1.2868     1.0710 C.ar    
  15 C15            2.4896     3.2131    -0.1706 C.ar    
  16 C16            0.5552    -0.6115    -1.4361 C.3     
  17 C17           -5.2626    -1.7171     1.1826 C.ar    
  18 C18            1.9140     1.9181    -0.1606 C.ar    
  19 C19           -6.4195    -5.1129     1.1586 C.3     
  20 C20            3.8982     3.3180    -0.2719 C.ar    
  21 C21            1.7128     4.3727    -0.0838 C.ar    
  22 C22            4.4921     4.5868    -0.2844 C.ar    
  23 C23            2.3231     5.5930    -0.0978 C.ar    
  24 C24            3.7069     5.6985    -0.1991 C.ar    
  25 C25            4.0371     1.0194    -0.3398 C.ar    
  26 H26            0.7004    -0.5182     0.7112 H       
  27 H27           -2.4740    -4.2352     0.3214 H       
  28 H28           -0.8956    -2.3293     0.9345 H       
  29 H29           -3.7140    -0.2453     1.2258 H       
  30 H30            0.4961    -1.6996    -1.4593 H       
  31 H31           -0.0738    -0.1966    -2.2237 H       
  32 H32            1.5878    -0.3002    -1.5939 H       
  33 H33           -6.0436    -1.0112     1.4236 H       
  34 H34           -7.1435    -5.7344     0.6316 H       
  35 H35           -6.3568    -5.4020     2.2077 H       
  36 H36            0.6378     4.3029    -0.0066 H       
  37 H37            5.5650     4.6839    -0.3608 H       
  38 H38            1.7240     6.4891    -0.0312 H       
  39 H39            4.1663     6.6759    -0.2085 H       
  40 H40            4.6523     0.1343    -0.4070 H       
@<TRIPOS>BOND
   1    1    8 1
   2    1   18 1
   3    2   10 1
   4    2   19 1
   5    3   11 1
   6    3   19 1
   7    4   12 2
   8    5    9 1
   9    5   12 am
  10    5   28 1
  11    6   18 ar
  12    6   25 ar
  13    7   20 ar
  14    7   25 ar
  15    8   12 1
  16    8   16 1
  17    8   26 1
  18    9   13 ar
  19    9   14 ar
  20   10   11 ar
  21   10   13 ar
  22   11   17 ar
  23   13   27 1
  24   14   17 ar
  25   14   29 1
  26   15   18 ar
  27   15   20 ar
  28   15   21 ar
  29   16   30 1
  30   16   31 1
  31   16   32 1
  32   17   33 1
  33   19   34 1
  34   19   35 1
  35   20   22 ar
  36   21   23 ar
  37   21   36 1
  38   22   24 ar
  39   22   37 1
  40   23   24 ar
  41   23   38 1
  42   24   39 1
  43   25   40 1

#	End of record

#	Name: 9551924
#	Creating user name:	landrgr1
#	Creation time:	28. 01. 2015 13:52

#	Modifying user name:	landrgr1
#	Modification time:	28. 01. 2015 13:52

#	Program:	corina 3.48 0006  22.01.2010

@<TRIPOS>MOLECULE
9551924
  55   56    0    0    0
SMALL
NO_CHARGES


@<TRIPOS>ATOM
   1 Cl1            0.0000     0.0000     0.0000 Cl      
   2 H2             0.0000     1.3700     0.0000 H       
   3 S3            14.6265     9.0833    10.2249 S.o2    
   4 O4            14.6458     7.6624    10.2171 O.2     
   5 O5            15.8054     9.8766    10.2179 O.2     
   6 O6            10.9254     7.0396    13.4579 O.2     
   7 N7            13.7435     9.5462     8.9027 N.am    
   8 N8            10.4070     8.5073    15.0420 N.am    
   9 N9             7.1604     7.9153    18.6516 N.pl3   
  10 N10            6.7907     8.5333    20.6859 N.2     
  11 C11           13.9368    10.9053     8.2939 C.3     
  12 C12           12.7860     8.6534     8.3168 C.3     
  13 C13           14.5983    10.7198     7.0030 C.3     
  14 C14           13.3269     7.6940     7.2276 C.3     
  15 C15           13.8314     9.8330     6.0273 C.3     
  16 C16           14.3132     8.4440     6.2988 C.3     
  17 C17           13.7141     9.5606    11.6547 C.ar    
  18 C18           12.8028     8.6878    12.2129 C.ar    
  19 C19           13.9170    10.8075    12.2184 C.ar    
  20 C20           12.0809     9.0675    13.3453 C.ar    
  21 C21           13.2045    11.1902    13.3413 C.ar    
  22 C22           12.2864    10.3294    13.9058 C.ar    
  23 C23            8.7915     8.2457    16.8595 C.3     
  24 C24           11.1025     8.1376    13.9484 C.2     
  25 C25            9.4374     7.5858    15.6396 C.3     
  26 C26            7.7789     7.2834    17.4836 C.3     
  27 C27            6.0258     8.6810    18.6553 C.2     
  28 C28            7.5999     7.8463    19.9267 C.2     
  29 C29            5.8139     9.0575    19.9308 C.2     
  30 H30           12.9696    11.3865     8.1484 H       
  31 H31           14.5611    11.5171     8.9451 H       
  32 H32           12.3508     8.0510     9.1143 H       
  33 H33           11.9883     9.2518     7.8767 H       
  34 H34           14.7410    11.6978     6.5434 H       
  35 H35           15.5787    10.2764     7.1769 H       
  36 H36           13.8424     6.8602     7.7041 H       
  37 H37           12.4944     7.3116     6.6371 H       
  38 H38           12.7596     9.9104     6.2097 H       
  39 H39           14.0619    10.1152     5.0000 H       
  40 H40           15.2925     8.4868     6.7755 H       
  41 H41           14.3978     7.9048     5.3553 H       
  42 H42           12.6482     7.7131    11.7742 H       
  43 H43           14.6349    11.4851    11.7805 H       
  44 H44           13.3679    12.1649    13.7768 H       
  45 H45           11.7307    10.6294    14.7819 H       
  46 H46            9.5615     8.4881    17.5918 H       
  47 H47            8.2826     9.1591    16.5515 H       
  48 H48            8.6674     7.3434    14.9072 H       
  49 H49            9.9463     6.6724    15.9475 H       
  50 H50            8.2879     6.3700    17.7915 H       
  51 H51            7.0089     7.0410    16.7512 H       
  52 H52           10.5483     9.3835    15.4334 H       
  53 H53            5.4176     8.9348    17.7997 H       
  54 H54            8.4756     7.3108    20.2626 H       
  55 H55            5.0000     9.6733    20.2839 H       
@<TRIPOS>BOND
   1    1    2 1
   2    3    4 2
   3    3    5 2
   4    3    7 am
   5    3   17 1
   6    6   24 2
   7    7   11 1
   8    7   12 1
   9    8   24 am
  10    8   25 1
  11    8   52 1
  12    9   26 1
  13    9   27 1
  14    9   28 1
  15   10   28 2
  16   10   29 1
  17   11   13 1
  18   11   30 1
  19   11   31 1
  20   12   14 1
  21   12   32 1
  22   12   33 1
  23   13   15 1
  24   13   34 1
  25   13   35 1
  26   14   16 1
  27   14   36 1
  28   14   37 1
  29   15   16 1
  30   15   38 1
  31   15   39 1
  32   16   40 1
  33   16   41 1
  34   17   18 ar
  35   17   19 ar
  36   18   20 ar
  37   18   42 1
  38   19   21 ar
  39   19   43 1
  40   20   22 ar
  41   20   24 1
  42   21   22 ar
  43   21   44 1
  44   22   45 1
  45   23   25 1
  46   23   26 1
  47   23   46 1
  48   23   47 1
  49   25   48 1
  50   25   49 1
  51   26   50 1
  52   26   51 1
  53   27   29 2
  54   27   53 1
  55   28   54 1
  56   29   55 1

#	End of record

#	Name: 9551921
#	Creating user name:	landrgr1
#	Creation time:	28. 01. 2015 13:52

#	Modifying user name:	landrgr1
#	Modification time:	28. 01. 2015 13:52

#	Program:	corina 3.48 0006  22.01.2010

@<TRIPOS>MOLECULE
9551921
  38   39    0    0    0
SMALL
NO_CHARGES


@<TRIPOS>ATOM
   1 Br1            0.0000     0.0000     0.0000 Br      
   2 H2             0.0000     1.5100     0.0000 H       
   3 Cl3            7.7294    17.6564     6.0664 Cl      
   4 N4             8.3870     9.5285     7.1596 N.3     
   5 N5             7.5868    13.7026     6.1017 N.pl3   
   6 N6             6.4183    12.1057     7.0213 N.2     
   7 C7             8.4060     8.1308     7.1519 C.3     
   8 C8             9.7191    10.1649     7.1503 C.3     
   9 C9             9.0930     7.5605     8.4120 C.3     
  10 C10           10.2317    10.1968     8.5683 C.3     
  11 C11           10.5871     7.6879     8.2576 C.3     
  12 C12           11.1375     8.9910     8.8709 C.3     
  13 C13            7.5470    10.0496     6.0730 C.3     
  14 C14            7.3506    11.5324     6.2568 C.2     
  15 C15            8.0887    12.5033     5.6753 C.2     
  16 C16            6.5417    13.4234     6.9433 C.2     
  17 C17            7.9403    14.9959     5.8434 C.2     
  18 C18            5.8256    14.4802     7.5403 C.2     
  19 C19            7.2633    16.0193     6.4075 C.2     
  20 C20            6.1840    15.7643     7.2710 C.2     
  21 H21            7.3812     7.7619     7.1082 H       
  22 H22            8.9437     7.7877     6.2681 H       
  23 H23           10.3994     9.5861     6.5257 H       
  24 H24            9.6389    11.1813     6.7648 H       
  25 H25            8.7680     8.1199     9.2892 H       
  26 H26            8.8267     6.5100     8.5286 H       
  27 H27           10.7989    11.1150     8.7210 H       
  28 H28            9.3840    10.1857     9.2534 H       
  29 H29           11.0654     6.8391     8.7463 H       
  30 H30           10.8347     7.6661     7.1963 H       
  31 H31           12.1304     9.1825     8.4641 H       
  32 H32           11.2161     8.8688     9.9512 H       
  33 H33            8.0343     9.8635     5.1159 H       
  34 H34            6.5785     9.5498     6.0908 H       
  35 H35            8.9191    12.3597     5.0000 H       
  36 H36            8.7690    15.2023     5.1824 H       
  37 H37            5.0000    14.2725     8.2049 H       
  38 H38            5.6442    16.5841     7.7214 H       
@<TRIPOS>BOND
   1    1    2 1
   2    3   19 1
   3    4    7 1
   4    4    8 1
   5    4   13 1
   6    5   15 1
   7    5   16 1
   8    5   17 1
   9    6   14 1
  10    6   16 2
  11    7    9 1
  12    7   21 1
  13    7   22 1
  14    8   10 1
  15    8   23 1
  16    8   24 1
  17    9   11 1
  18    9   25 1
  19    9   26 1
  20   10   12 1
  21   10   27 1
  22   10   28 1
  23   11   12 1
  24   11   29 1
  25   11   30 1
  26   12   31 1
  27   12   32 1
  28   13   14 1
  29   13   33 1
  30   13   34 1
  31   14   15 2
  32   15   35 1
  33   16   18 1
  34   17   19 2
  35   17   36 1
  36   18   20 2
  37   18   37 1
  38   19   20 1
  39   20   38 1

#	End of record

#	Name: 9551919
#	Creating user name:	landrgr1
#	Creation time:	28. 01. 2015 13:52

#	Modifying user name:	landrgr1
#	Modification time:	28. 01. 2015 13:52

#	Program:	corina 3.48 0006  22.01.2010

@<TRIPOS>MOLECULE
9551919
  29   29    0    0    0
SMALL
NO_CHARGES


@<TRIPOS>ATOM
   1 Cl1            8.9194     6.6431    -0.0651 Cl      
   2 O2             9.7610     2.5169    -0.0802 O.2     
   3 O3            10.3207     4.5509    -0.0843 O.2     
   4 N4            -0.0164     1.3618     0.0095 N.pl3   
   5 N5             2.3948     1.8282    -0.0114 N.pl3   
   6 N6             3.3959     2.8084    -0.0156 N.2     
   7 N7             9.4537     3.6955    -0.0756 N.pl3   
   8 N8             0.5931     3.4274     0.0148 N.2     
   9 N9             0.0021    -0.0041     0.0020 N.3     
  10 N10           -0.6919     3.4041     0.0234 N.2     
  11 C11            5.6998     3.4906    -0.0343 C.ar    
  12 C12            7.0461     3.1182    -0.0496 C.ar    
  13 C13            8.0266     4.0882    -0.0594 C.ar    
  14 C14            5.3559     4.8450    -0.0291 C.ar    
  15 C15            7.6790     5.4285    -0.0538 C.ar    
  16 C16            6.3459     5.8045    -0.0391 C.ar    
  17 C17            4.6463     2.4591    -0.0298 C.2     
  18 C18            1.0608     2.2008     0.0037 C.2     
  19 C19           -1.1169     2.1718     0.0184 C.2     
  20 H20            7.3186     2.0732    -0.0533 H       
  21 H21            4.3169     5.1394    -0.0177 H       
  22 H22            6.0815     6.8517    -0.0351 H       
  23 H23            4.9147     1.4131    -0.0384 H       
  24 H24            2.6359     0.8887    -0.0191 H       
  25 H25           -2.1480     1.8504     0.0205 H       
  26 H26            0.0160    -0.3707     0.9420 H       
  27 H27           -0.7793    -0.3734    -0.5187 H       
  28 Cl28          15.3207    11.8517     5.9420 Cl      
  29 H29           15.3207    13.2217     5.9420 H       
@<TRIPOS>BOND
   1    1   15 1
   2    2    7 2
   3    3    7 2
   4    4    9 1
   5    4   18 1
   6    4   19 1
   7    5    6 1
   8    5   18 1
   9    5   24 1
  10    6   17 2
  11    7   13 1
  12    8   10 1
  13    8   18 2
  14    9   26 1
  15    9   27 1
  16   10   19 2
  17   11   12 ar
  18   11   14 ar
  19   11   17 1
  20   12   13 ar
  21   12   20 1
  22   13   15 ar
  23   14   16 ar
  24   14   21 1
  25   15   16 ar
  26   16   22 1
  27   17   23 1
  28   19   25 1
  29   28   29 1

#	End of record

#	Name: 9551852
#	Creating user name:	landrgr1
#	Creation time:	28. 01. 2015 13:52

#	Modifying user name:	landrgr1
#	Modification time:	28. 01. 2015 13:52

#	Program:	corina 3.48 0006  22.01.2010

@<TRIPOS>MOLECULE
9551852
  49   50    0    0    0
SMALL
NO_CHARGES


@<TRIPOS>ATOM
   1 Cl1            0.0000     0.0000     0.0000 Cl      
   2 H2             0.0000     1.3700     0.0000 H       
   3 O3            12.7847    13.1892     5.9899 O.3     
   4 N4             9.5121     9.3638     8.4872 N.pl3   
   5 N5            11.9830     8.3202    11.0848 N.3     
   6 N6             8.9547     9.6395     6.3873 N.2     
   7 N7            11.0270    10.6177     7.0511 N.pl3   
   8 C8            10.2735     9.4413     9.7364 C.3     
   9 C9            11.2194     8.2425     9.8323 C.3     
  10 C10            8.2907     8.7352     8.3071 C.ar    
  11 C11            9.8712     9.9027     7.2851 C.2     
  12 C12           11.1013     8.1638    12.2494 C.3     
  13 C13           13.0636     7.3254    11.1052 C.3     
  14 C14            7.9516     8.9204     6.9564 C.ar    
  15 C15            7.4395     8.0309     9.1443 C.ar    
  16 C16           11.8303     8.6377    13.5083 C.3     
  17 C17           14.2073     7.7962    10.2046 C.3     
  18 C18            6.7564     8.3876     6.4684 C.ar    
  19 C19           11.3024    11.1476     5.7134 C.3     
  20 C20            6.2605     7.5135     8.6475 C.ar    
  21 C21            5.9242     7.6875     7.3135 C.ar    
  22 C22           12.6176    11.8831     5.7254 C.2     
  23 C23           13.8233    11.3431     5.4725 C.2     
  24 C24           14.7719    12.3847     5.5918 C.2     
  25 C25           14.0891    13.4990     5.9103 C.2     
  26 H26           10.8537    10.3640     9.7516 H       
  27 H27            9.5861     9.4303    10.5822 H       
  28 H28           11.9068     8.2535     8.9864 H       
  29 H29           10.6393     7.3198     9.8170 H       
  30 H30           10.2000     8.7597    12.1054 H       
  31 H31           10.8290     7.1142    12.3606 H       
  32 H32           13.4294     7.2071    12.1252 H       
  33 H33           12.6848     6.3700    10.7420 H       
  34 H34           11.6576    10.7697     7.7723 H       
  35 H35            7.6984     7.8872    10.1829 H       
  36 H36           12.7393     8.0516    13.6441 H       
  37 H37           12.0896     9.6912    13.4032 H       
  38 H38           11.1815     8.5079    14.3745 H       
  39 H39           13.8679     7.8206     9.1691 H       
  40 H40           14.5210     8.7951    10.5079 H       
  41 H41           15.0479     7.1082    10.2953 H       
  42 H42            6.4854     8.5244     5.4320 H       
  43 H43           11.3527    10.3250     5.0000 H       
  44 H44           10.5057    11.8324     5.4227 H       
  45 H45            5.5982     6.9646     9.3005 H       
  46 H46            5.0000     7.2757     6.9357 H       
  47 H47           14.0277    10.3115     5.2263 H       
  48 H48           15.8398    12.3015     5.4539 H       
  49 H49           14.5172    14.4768     6.0743 H       
@<TRIPOS>BOND
   1    1    2 1
   2    3   22 1
   3    3   25 1
   4    4    8 1
   5    4   10 1
   6    4   11 1
   7    5    9 1
   8    5   12 1
   9    5   13 1
  10    6   11 2
  11    6   14 1
  12    7   11 1
  13    7   19 1
  14    7   34 1
  15    8    9 1
  16    8   26 1
  17    8   27 1
  18    9   28 1
  19    9   29 1
  20   10   14 ar
  21   10   15 ar
  22   12   16 1
  23   12   30 1
  24   12   31 1
  25   13   17 1
  26   13   32 1
  27   13   33 1
  28   14   18 ar
  29   15   20 ar
  30   15   35 1
  31   16   36 1
  32   16   37 1
  33   16   38 1
  34   17   39 1
  35   17   40 1
  36   17   41 1
  37   18   21 ar
  38   18   42 1
  39   19   22 1
  40   19   43 1
  41   19   44 1
  42   20   21 ar
  43   20   45 1
  44   21   46 1
  45   22   23 2
  46   23   24 1
  47   23   47 1
  48   24   25 2
  49   24   48 1
  50   25   49 1

#	End of record

#	Name: 9551807
#	Creating user name:	landrgr1
#	Creation time:	28. 01. 2015 13:52

#	Modifying user name:	landrgr1
#	Modification time:	28. 01. 2015 13:52

#	Program:	corina 3.48 0006  22.01.2010

@<TRIPOS>MOLECULE
9551807
  58   63    0    0    0
SMALL
NO_CHARGES


@<TRIPOS>ATOM
   1 Cl1           -6.8645    -0.0751    -6.0530 Cl      
   2 S2             0.6757     0.6146    -1.5182 S.3     
   3 O3            -3.0458     1.0102    -1.6215 O.2     
   4 O4            -0.6954    -2.0859     0.6442 O.2     
   5 O5            -5.7394    -3.3831    -1.8711 O.2     
   6 O6            -2.2328    -5.4443     0.4623 O.2     
   7 N7            -2.8522    -2.8205    -2.5510 N.3     
   8 N8            -1.6628    -0.3665    -0.4702 N.am    
   9 N9            -5.9041    -1.8639    -3.5745 N.am    
  10 N10           -4.1203    -6.5958     0.2795 N.am    
  11 N11           -2.0286     1.6725     2.5991 N.1     
  12 C12           -3.7613    -1.2222    -1.0058 C.3     
  13 C13           -3.9395    -1.8360    -2.3999 C.3     
  14 C14           -2.9538    -2.2861    -0.2110 C.3     
  15 C15           -2.7364    -3.4449    -1.2065 C.3     
  16 C16           -3.8878    -0.7883    -3.4753 C.ar    
  17 C17           -2.8084    -0.0505    -1.0849 C.2     
  18 C18           -1.6340    -1.5978     0.0524 C.2     
  19 C19           -5.2902    -2.4816    -2.5469 C.2     
  20 C20           -3.8148    -4.5145    -1.0218 C.3     
  21 C21           -5.1072    -0.8658    -4.1408 C.ar    
  22 C22           -2.9349     0.1283    -3.8610 C.ar    
  23 C23           -0.5883     0.5139    -0.3820 C.2     
  24 C24           -3.3315    -5.5508    -0.0401 C.2     
  25 C25           -5.3513     0.0003    -5.2054 C.ar    
  26 C26           -3.1844     0.9835    -4.9193 C.ar    
  27 C27           -0.4042     1.4142     0.6271 C.2     
  28 C28           -4.3932     0.9172    -5.5879 C.ar    
  29 C29            0.7980     2.2114     0.4764 C.2     
  30 C30            1.4835     1.8960    -0.6301 C.2     
  31 C31            1.2378     3.2859     1.4580 C.3     
  32 C32            2.7801     2.5605    -1.0511 C.3     
  33 C33            2.7160     3.5991     1.2156 C.3     
  34 C34            2.9349     3.8717    -0.2757 C.3     
  35 C35           -2.1420     1.9866    -5.3415 C.3     
  36 C36           -1.3100     1.5583     1.7268 C.1     
  37 H37           -4.7111    -0.9717    -0.5333 H       
  38 H38           -3.4593    -2.6061     0.7001 H       
  39 H39           -1.7450    -3.8780    -1.0737 H       
  40 H40           -3.0830    -3.5096    -3.2510 H       
  41 H41           -4.7251    -4.0508    -0.6419 H       
  42 H42           -4.0221    -4.9906    -1.9801 H       
  43 H43           -6.7957    -2.0862    -3.8853 H       
  44 H44           -1.9921     0.1796    -3.3365 H       
  45 H45           -4.5878     1.5850    -6.4141 H       
  46 H46            0.6435     4.1866     1.3044 H       
  47 H47            1.1030     2.9262     2.4781 H       
  48 H48            3.6185     1.9014    -0.8258 H       
  49 H49            2.7535     2.7692    -2.1206 H       
  50 H50            3.0012     4.4790     1.7923 H       
  51 H51            3.3238     2.7482     1.5234 H       
  52 H52            3.9376     4.2704    -0.4301 H       
  53 H53            2.1965     4.5924    -0.6269 H       
  54 H54           -1.4916     1.5401    -6.0937 H       
  55 H55           -2.6321     2.8654    -5.7606 H       
  56 H56           -1.5483     2.2799    -4.4758 H       
  57 H57           -3.8092    -7.2628     0.9113 H       
  58 H58           -4.9990    -6.6810    -0.1224 H       
@<TRIPOS>BOND
   1    1   25 1
   2    2   23 1
   3    2   30 1
   4    3   17 2
   5    4   18 2
   6    5   19 2
   7    6   24 2
   8    7   13 1
   9    7   15 1
  10    7   40 1
  11    8   17 am
  12    8   18 am
  13    8   23 1
  14    9   19 am
  15    9   21 1
  16    9   43 1
  17   10   24 am
  18   10   57 1
  19   10   58 1
  20   11   36 3
  21   12   13 1
  22   12   14 1
  23   12   17 1
  24   12   37 1
  25   13   16 1
  26   13   19 1
  27   14   15 1
  28   14   18 1
  29   14   38 1
  30   15   20 1
  31   15   39 1
  32   16   21 ar
  33   16   22 ar
  34   20   24 1
  35   20   41 1
  36   20   42 1
  37   21   25 ar
  38   22   26 ar
  39   22   44 1
  40   23   27 2
  41   25   28 ar
  42   26   28 ar
  43   26   35 1
  44   27   29 1
  45   27   36 1
  46   28   45 1
  47   29   30 2
  48   29   31 1
  49   30   32 1
  50   31   33 1
  51   31   46 1
  52   31   47 1
  53   32   34 1
  54   32   48 1
  55   32   49 1
  56   33   34 1
  57   33   50 1
  58   33   51 1
  59   34   52 1
  60   34   53 1
  61   35   54 1
  62   35   55 1
  63   35   56 1

#	End of record

#	Name: 9551788
#	Creating user name:	landrgr1
#	Creation time:	28. 01. 2015 13:52

#	Modifying user name:	landrgr1
#	Modification time:	28. 01. 2015 13:52

#	Program:	corina 3.48 0006  22.01.2010

@<TRIPOS>MOLECULE
9551788
  38   39    0    0    0
SMALL
NO_CHARGES


@<TRIPOS>ATOM
   1 Cl1            0.0000     0.0000     0.0000 Cl      
   2 H2             0.0000     1.3700     0.0000 H       
   3 S3             7.4297    14.5698     7.1412 S.3     
   4 O4             6.3807    11.9947     7.1373 O.3     
   5 N5             6.5968     8.4922     6.1576 N.3     
   6 N6             8.1590    10.8097     7.1140 N.2     
   7 N7             8.5199    12.0446     7.1172 N.2     
   8 C8             6.0411     9.4706     7.1275 C.3     
   9 C9             6.1446     8.7636     8.4959 C.3     
  10 C10            6.1724     7.2567     8.1674 C.3     
  11 C11            6.0833     7.1799     6.6281 C.3     
  12 C12            6.8604    10.7354     7.1260 C.2     
  13 C13            7.4536    12.8080     7.1315 C.2     
  14 C14            9.2077    14.9083     7.1260 C.3     
  15 C15            9.4355    16.3980     7.1318 C.ar    
  16 C16            9.5514    17.0748     8.3316 C.ar    
  17 C17            9.5342    17.0868     5.9374 C.ar    
  18 C18            9.8538    19.1309     7.1425 C.ar    
  19 C19            9.7603    18.4413     8.3369 C.ar    
  20 C20            9.7431    18.4532     5.9427 C.ar    
  21 C21           10.0810    20.6206     7.1483 C.3     
  22 H22            5.0000     9.6908     6.8912 H       
  23 H23            7.0626     9.0571     9.0052 H       
  24 H24            5.2769     9.0010     9.1114 H       
  25 H25            7.1041     6.8104     8.5154 H       
  26 H26            5.3183     6.7544     8.6216 H       
  27 H27            5.0489     7.0416     6.3137 H       
  28 H28            6.7078     6.3700     6.2511 H       
  29 H29            6.2780     8.6904     5.2210 H       
  30 H30            9.6692    14.4668     8.0093 H       
  31 H31            9.6522    14.4763     6.2294 H       
  32 H32            9.4784    16.5360     9.2647 H       
  33 H33            9.4484    16.5573     5.0000 H       
  34 H34            9.8502    18.9701     9.2743 H       
  35 H35            9.8206    18.9913     5.0095 H       
  36 H36           11.1517    20.8249     7.1398 H       
  37 H37            9.6199    21.0620     6.2648 H       
  38 H38            9.6359    21.0526     8.0447 H       
@<TRIPOS>BOND
   1    1    2 1
   2    3   13 1
   3    3   14 1
   4    4   12 1
   5    4   13 1
   6    5    8 1
   7    5   11 1
   8    5   29 1
   9    6    7 1
  10    6   12 2
  11    7   13 2
  12    8    9 1
  13    8   12 1
  14    8   22 1
  15    9   10 1
  16    9   23 1
  17    9   24 1
  18   10   11 1
  19   10   25 1
  20   10   26 1
  21   11   27 1
  22   11   28 1
  23   14   15 1
  24   14   30 1
  25   14   31 1
  26   15   16 ar
  27   15   17 ar
  28   16   19 ar
  29   16   32 1
  30   17   20 ar
  31   17   33 1
  32   18   19 ar
  33   18   20 ar
  34   18   21 1
  35   19   34 1
  36   20   35 1
  37   21   36 1
  38   21   37 1
  39   21   38 1

#	End of record

#	Name: 9551776
#	Creating user name:	landrgr1
#	Creation time:	28. 01. 2015 13:52

#	Modifying user name:	landrgr1
#	Modification time:	28. 01. 2015 13:52

#	Program:	corina 3.48 0006  22.01.2010

@<TRIPOS>MOLECULE
9551776
  60   63    0    0    0
SMALL
NO_CHARGES


@<TRIPOS>ATOM
   1 Cl1            0.4948     1.0892    -2.9582 Cl      
   2 O2            -0.0163     1.3517     0.0095 O.3     
   3 N3            -0.9933    -0.8835     0.2483 N.pl3   
   4 N4            -0.4631    -2.1766     0.1159 N.2     
   5 N5             2.5985    -0.1475    -4.2574 N.pl3   
   6 N6             3.7693    -0.8414    -3.9252 N.2     
   7 N7             1.1828     3.3341     0.2899 N.pl3   
   8 N8             4.4971     2.7950    -0.2244 N.1     
   9 C9             2.4483    -0.0779    -0.6078 C.3     
  10 C10            1.1282    -0.7263    -0.2793 C.2     
  11 C11            2.7458    -0.2454    -2.0756 C.2     
  12 C12            0.0021    -0.0041     0.0020 C.2     
  13 C13            2.3485     1.3894    -0.2733 C.2     
  14 C14            0.8064    -2.0748    -0.1999 C.2     
  15 C15            3.8560    -0.8991    -2.6208 C.2     
  16 C16            1.9848     0.2096    -3.0998 C.2     
  17 C17            1.1705     1.9921     0.0016 C.2     
  18 C18            1.7526    -3.2238    -0.4358 C.3     
  19 C19           -2.3177    -0.5625     0.5762 C.ar    
  20 C20            4.9631    -1.5580    -1.8390 C.3     
  21 C21            2.1446     0.1333    -5.5537 C.ar    
  22 C22            3.5467     2.1732    -0.2460 C.1     
  23 C23           -3.3595    -1.3610     0.1237 C.ar    
  24 C24           -2.5901     0.5514     1.3591 C.ar    
  25 C25            3.0551     0.4063    -6.5656 C.ar    
  26 C26            0.7839     0.1335    -5.8294 C.ar    
  27 C27           -4.6635    -1.0421     0.4485 C.ar    
  28 C28           -3.8962     0.8651     1.6805 C.ar    
  29 C29           -4.9321     0.0714     1.2232 C.ar    
  30 C30            2.6048     0.6822    -7.8419 C.ar    
  31 C31            0.3397     0.4101    -7.1076 C.ar    
  32 C32            1.2487     0.6872    -8.1121 C.ar    
  33 H33            3.2408    -0.5376    -0.0172 H       
  34 H34            1.7330    -3.5001    -1.4900 H       
  35 H35            2.7632    -2.9253    -0.1572 H       
  36 H36            1.4460    -4.0770     0.1692 H       
  37 H37            5.7531    -0.8323    -1.6457 H       
  38 H38            4.5693    -1.9271    -0.8920 H       
  39 H39            5.3677    -2.3912    -2.4137 H       
  40 H40            0.3532     3.7945     0.4916 H       
  41 H41            2.0212     3.8221     0.2921 H       
  42 H42           -3.1504    -2.2304    -0.4820 H       
  43 H43           -1.7815     1.1716     1.7166 H       
  44 H44            4.1144     0.4033    -6.3550 H       
  45 H45            0.0734    -0.0829    -5.0452 H       
  46 H46           -5.4743    -1.6629     0.0967 H       
  47 H47           -4.1087     1.7312     2.2897 H       
  48 H48           -5.9526     0.3191     1.4752 H       
  49 H49            3.3126     0.8947    -8.6295 H       
  50 H50           -0.7186     0.4100    -7.3228 H       
  51 H51            0.8990     0.9036    -9.1108 H       
  52 O52           12.6963    11.8704     8.1944 O.3     
  53 C53           12.7157    10.4415     8.1865 C.3     
  54 C54           11.2803     9.9120     8.1974 C.3     
  55 H55           13.2259    10.0900     7.2897 H       
  56 H56           13.2429    10.0805     9.0696 H       
  57 H57           10.7701    10.2635     9.0942 H       
  58 H58           10.7531    10.2730     7.3143 H       
  59 H59           11.2951     8.8221     8.1914 H       
  60 H60           13.5743    12.2757     8.1882 H       
@<TRIPOS>BOND
   1    1   16 1
   2    2   12 1
   3    2   17 1
   4    3    4 1
   5    3   12 1
   6    3   19 1
   7    4   14 2
   8    5    6 1
   9    5   16 1
  10    5   21 1
  11    6   15 2
  12    7   17 1
  13    7   40 1
  14    7   41 1
  15    8   22 3
  16    9   10 1
  17    9   11 1
  18    9   13 1
  19    9   33 1
  20   10   12 2
  21   10   14 1
  22   11   15 1
  23   11   16 2
  24   13   17 2
  25   13   22 1
  26   14   18 1
  27   15   20 1
  28   18   34 1
  29   18   35 1
  30   18   36 1
  31   19   23 ar
  32   19   24 ar
  33   20   37 1
  34   20   38 1
  35   20   39 1
  36   21   25 ar
  37   21   26 ar
  38   23   27 ar
  39   23   42 1
  40   24   28 ar
  41   24   43 1
  42   25   30 ar
  43   25   44 1
  44   26   31 ar
  45   26   45 1
  46   27   29 ar
  47   27   46 1
  48   28   29 ar
  49   28   47 1
  50   29   48 1
  51   30   32 ar
  52   30   49 1
  53   31   32 ar
  54   31   50 1
  55   32   51 1
  56   52   53 1
  57   52   60 1
  58   53   54 1
  59   53   55 1
  60   53   56 1
  61   54   57 1
  62   54   58 1
  63   54   59 1

#	End of record

#	Name: 9551760
#	Creating user name:	landrgr1
#	Creation time:	28. 01. 2015 13:52

#	Modifying user name:	landrgr1
#	Modification time:	28. 01. 2015 13:52

#	Program:	corina 3.48 0006  22.01.2010

@<TRIPOS>MOLECULE
9551760
  41   43    0    0    0
SMALL
NO_CHARGES


@<TRIPOS>ATOM
   1 Cl1            0.0000     0.0000     0.0000 Cl      
   2 H2             0.0000     1.3700     0.0000 H       
   3 O3            13.1412    13.3702     7.1100 O.3     
   4 N4            10.8172    11.4097     7.1207 N.pl3   
   5 N5            14.7555    10.2860     7.0777 N.ar    
   6 N6            12.5083     9.7651     7.0959 N.ar    
   7 N7             6.6125    11.9004     8.3613 N.ar    
   8 C8            14.4904    11.5898     7.0876 C.ar    
   9 C9            13.1595    12.0217     7.1026 C.ar    
  10 C10           15.3061    12.8158     7.0864 C.ar    
  11 C11           12.1551    11.0460     7.1065 C.ar    
  12 C12           14.3920    13.8805     7.1008 C.ar    
  13 C13           13.7779     9.4044     7.0819 C.ar    
  14 C14           16.6744    13.0687     7.0743 C.ar    
  15 C15            9.7776    10.3775     7.1242 C.3     
  16 C16           14.1193     7.9366     7.0704 C.3     
  17 C17           14.8710    15.1853     7.1032 C.ar    
  18 C18           17.1298    14.3699     7.0764 C.ar    
  19 C19            8.4201    11.0318     7.1403 C.ar    
  20 C20           16.2289    15.4232     7.0911 C.ar    
  21 C21           14.2483     7.4316     8.5089 C.3     
  22 C22            7.7769    11.3436     5.9520 C.ar    
  23 C23            7.8005    11.3283     8.3393 C.ar    
  24 C24            6.5291    11.9444     6.0151 C.ar    
  25 C25            5.9717    12.2109     7.2516 C.ar    
  26 H26           10.5696    12.3475     7.1284 H       
  27 H27           17.3771    12.2486     7.0631 H       
  28 H28            9.8737     9.7620     6.2297 H       
  29 H29            9.8898     9.7517     8.0096 H       
  30 H30           13.3299     7.3840     6.5608 H       
  31 H31           15.0635     7.7872     6.5468 H       
  32 H32           14.1784    16.0139     7.1143 H       
  33 H33           18.1912    14.5691     7.0673 H       
  34 H34           16.5941    16.4396     7.0927 H       
  35 H35           13.3041     7.5810     9.0325 H       
  36 H36           14.4952     6.3700     8.5005 H       
  37 H37           15.0377     7.9842     9.0184 H       
  38 H38            8.2371    11.1238     5.0000 H       
  39 H39            8.2950    11.0890     9.2691 H       
  40 H40            5.9994    12.2010     5.1096 H       
  41 H41            5.0000    12.6788     7.3093 H       
@<TRIPOS>BOND
   1    1    2 1
   2    3    9 1
   3    3   12 1
   4    4   11 1
   5    4   15 1
   6    4   26 1
   7    5    8 ar
   8    5   13 ar
   9    6   11 ar
  10    6   13 ar
  11    7   23 ar
  12    7   25 ar
  13    8    9 ar
  14    8   10 1
  15    9   11 ar
  16   10   12 ar
  17   10   14 ar
  18   12   17 ar
  19   13   16 1
  20   14   18 ar
  21   14   27 1
  22   15   19 1
  23   15   28 1
  24   15   29 1
  25   16   21 1
  26   16   30 1
  27   16   31 1
  28   17   20 ar
  29   17   32 1
  30   18   20 ar
  31   18   33 1
  32   19   22 ar
  33   19   23 ar
  34   20   34 1
  35   21   35 1
  36   21   36 1
  37   21   37 1
  38   22   24 ar
  39   22   38 1
  40   23   39 1
  41   24   25 ar
  42   24   40 1
  43   25   41 1

#	End of record

#	Name: 9551743
#	Creating user name:	landrgr1
#	Creation time:	28. 01. 2015 13:52

#	Modifying user name:	landrgr1
#	Modification time:	28. 01. 2015 13:52

#	Program:	corina 3.48 0006  22.01.2010

@<TRIPOS>MOLECULE
9551743
  38   39    0    0    0
SMALL
NO_CHARGES


@<TRIPOS>ATOM
   1 S1            -0.0146     1.7501    -0.0929 S.3     
   2 O2             3.4515     0.3160    -0.1530 O.2     
   3 O3            -0.1300     8.0242    -0.3720 O.3     
   4 N4             1.3443    -0.4057    -0.2186 N.am    
   5 N5            -1.0043    -0.8156    -0.2384 N.2     
   6 C6             1.6893    -1.8484    -0.3193 C.3     
   7 C7             0.5328    -2.5505    -1.0391 C.3     
   8 C8            -0.7791    -2.2638    -0.3061 C.3     
   9 C9             0.0191    -0.0119    -0.1935 C.2     
  10 C10            2.2590     0.5594    -0.1511 C.2     
  11 C11            1.7500     1.9288    -0.0742 C.2     
  12 C12            2.4672     3.0783    -0.0048 C.2     
  13 C13            1.7860     4.3759    -0.1015 C.ar    
  14 C14            2.3974     5.5298     0.4038 C.ar    
  15 C15            0.5254     4.4645    -0.7044 C.ar    
  16 C16            1.7542     6.7436     0.3105 C.ar    
  17 C17           -0.1087     5.6834    -0.7923 C.ar    
  18 C18            0.5002     6.8247    -0.2834 C.ar    
  19 H19            2.6093    -1.9698    -0.8911 H       
  20 H20            1.8144    -2.2694     0.6783 H       
  21 H21            0.4648    -2.1813    -2.0625 H       
  22 H22            0.7132    -3.6254    -1.0530 H       
  23 H23           -0.7262    -2.6699     0.7040 H       
  24 H24           -1.6037    -2.7340    -0.8418 H       
  25 H25            3.5391     3.0392     0.1215 H       
  26 H26            3.3714     5.4678     0.8661 H       
  27 H27            0.0514     3.5784    -1.1001 H       
  28 H28            2.2248     7.6343     0.6999 H       
  29 H29           -1.0811     5.7529    -1.2571 H       
  30 H30            0.0681     8.5137    -1.1820 H       
  31 O31           10.6536    16.2592     6.7581 O.3     
  32 O32           11.7262    14.3273     6.7375 O.2     
  33 C33            9.3771    14.1459     6.7589 C.3     
  34 C34           10.6718    14.9171     6.7507 C.2     
  35 H35            8.5391    14.8429     6.7707 H       
  36 H36            9.3193    13.5233     5.8661 H       
  37 H37            9.3363    13.5137     7.6460 H       
  38 H38           11.5091    16.7099     6.7524 H       
@<TRIPOS>BOND
   1    1    9 1
   2    1   11 1
   3    2   10 2
   4    3   18 1
   5    3   30 1
   6    4    6 1
   7    4    9 1
   8    4   10 am
   9    5    8 1
  10    5    9 2
  11    6    7 1
  12    6   19 1
  13    6   20 1
  14    7    8 1
  15    7   21 1
  16    7   22 1
  17    8   23 1
  18    8   24 1
  19   10   11 1
  20   11   12 2
  21   12   13 1
  22   12   25 1
  23   13   14 ar
  24   13   15 ar
  25   14   16 ar
  26   14   26 1
  27   15   17 ar
  28   15   27 1
  29   16   18 ar
  30   16   28 1
  31   17   18 ar
  32   17   29 1
  33   31   34 1
  34   31   38 1
  35   32   34 2
  36   33   34 1
  37   33   35 1
  38   33   36 1
  39   33   37 1

#	End of record

#	Name: 9551678
#	Creating user name:	landrgr1
#	Creation time:	28. 01. 2015 13:52

#	Modifying user name:	landrgr1
#	Modification time:	28. 01. 2015 13:52

#	Program:	corina 3.48 0006  22.01.2010

@<TRIPOS>MOLECULE
9551678
  51   55    0    0    0
SMALL
NO_CHARGES


@<TRIPOS>ATOM
   1 O1             1.6458    -1.6703    -1.8200 O.2     
   2 O2             4.5163     1.2992    -0.0122 O.2     
   3 O3             1.1558     1.7997    -2.3417 O.2     
   4 N4            -0.0179     1.4701     0.0101 N.pl3   
   5 N5             3.2743    -0.2432    -1.1282 N.am    
   6 C6             1.4373    -0.4561     0.2762 C.3     
   7 C7             2.2139     0.8459     0.6290 C.3     
   8 C8             0.0021    -0.0041     0.0020 C.3     
   9 C9             1.3565     1.9634    -0.0003 C.3     
  10 C10            2.1003    -0.8828    -1.0182 C.2     
  11 C11            3.4841     0.6873    -0.1851 C.2     
  12 C12            4.2438    -0.5359    -2.1867 C.3     
  13 C13           -0.9343    -0.4654     1.0891 C.ar    
  14 C14            4.4874     0.7251    -3.0182 C.3     
  15 C15            5.5613    -0.9951    -1.5588 C.3     
  16 C16            1.8032     2.2257    -1.4156 C.2     
  17 C17           -1.1925     2.2046     0.0748 C.2     
  18 C18            5.4999     0.4193    -4.1237 C.3     
  19 C19            6.5739    -1.3009    -2.6643 C.3     
  20 C20           -1.9999     0.3650     1.4574 C.ar    
  21 C21            6.8174    -0.0399    -3.4958 C.3     
  22 C22           -2.2020     1.6640     0.7846 C.2     
  23 C23           -0.7528    -1.6769     1.7147 C.ar    
  24 C24            3.0576     3.0195    -1.6749 C.3     
  25 C25           -2.8723    -0.0463     2.4662 C.ar    
  26 C26           -1.6246    -2.0777     2.7136 C.ar    
  27 C27           -2.6790    -1.2634     3.0866 C.ar    
  28 H28            1.4969    -1.2114     1.0598 H       
  29 H29            2.3828     0.9796     1.6976 H       
  30 H30           -0.3260    -0.3755    -0.9688 H       
  31 H31            1.4329     2.8746     0.5930 H       
  32 H32            3.8531    -1.3250    -2.8292 H       
  33 H33            3.5488     1.0522    -3.4655 H       
  34 H34            4.8781     1.5141    -2.3757 H       
  35 H35            5.9521    -0.2061    -0.9163 H       
  36 H36            5.3878    -1.8935    -0.9664 H       
  37 H37           -1.2926     3.1604    -0.4179 H       
  38 H38            5.1092    -0.3697    -4.7662 H       
  39 H39            5.6734     1.3177    -4.7161 H       
  40 H40            7.5125    -1.6281    -2.2170 H       
  41 H41            6.1831    -2.0900    -3.3068 H       
  42 H42            7.5388    -0.2577    -4.2834 H       
  43 H43            7.2082     0.7491    -2.8533 H       
  44 H44           -3.1500     2.1758     0.8608 H       
  45 H45            0.0690    -2.3157     1.4268 H       
  46 H46            2.8086     4.0780    -1.7508 H       
  47 H47            3.7589     2.8692    -0.8542 H       
  48 H48            3.5126     2.6855    -2.6074 H       
  49 H49           -3.6963     0.5866     2.7606 H       
  50 H50           -1.4805    -3.0294     3.2034 H       
  51 H51           -3.3541    -1.5819     3.8672 H       
@<TRIPOS>BOND
   1    1   10 2
   2    2   11 2
   3    3   16 2
   4    4    8 1
   5    4    9 1
   6    4   17 1
   7    5   10 am
   8    5   11 am
   9    5   12 1
  10    6    7 1
  11    6    8 1
  12    6   10 1
  13    6   28 1
  14    7    9 1
  15    7   11 1
  16    7   29 1
  17    8   13 1
  18    8   30 1
  19    9   16 1
  20    9   31 1
  21   12   14 1
  22   12   15 1
  23   12   32 1
  24   13   20 ar
  25   13   23 ar
  26   14   18 1
  27   14   33 1
  28   14   34 1
  29   15   19 1
  30   15   35 1
  31   15   36 1
  32   16   24 1
  33   17   22 2
  34   17   37 1
  35   18   21 1
  36   18   38 1
  37   18   39 1
  38   19   21 1
  39   19   40 1
  40   19   41 1
  41   20   22 1
  42   20   25 ar
  43   21   42 1
  44   21   43 1
  45   22   44 1
  46   23   26 ar
  47   23   45 1
  48   24   46 1
  49   24   47 1
  50   24   48 1
  51   25   27 ar
  52   25   49 1
  53   26   27 ar
  54   26   50 1
  55   27   51 1

#	End of record

#	Name: 9551643
#	Creating user name:	landrgr1
#	Creation time:	28. 01. 2015 13:52

#	Modifying user name:	landrgr1
#	Modification time:	28. 01. 2015 13:52

#	Program:	corina 3.48 0006  22.01.2010

@<TRIPOS>MOLECULE
9551643
  54   58    0    0    0
SMALL
NO_CHARGES


@<TRIPOS>ATOM
   1 Cl1           -3.6212     0.2506     6.7247 Cl      
   2 O2            -2.2843    -6.3009    -0.3329 O.2     
   3 O3             2.4232    -2.6042     1.5691 O.3     
   4 O4            -2.8435    -0.7262     1.1228 O.2     
   5 N5            -2.0365    -4.0762    -0.7145 N.am    
   6 N6            -3.1488    -5.1750     2.6287 N.pl3   
   7 N7            -3.3509    -4.0727     3.4692 N.pl3   
   8 N8             1.9792    -3.1042    -2.2603 N.ar    
   9 C9            -2.2246    -2.8723     0.1033 C.3     
  10 C10           -2.6780    -3.3514     1.4603 C.2     
  11 C11           -2.7371    -4.7117     1.4017 C.2     
  12 C12           -3.0609    -2.9454     2.7515 C.2     
  13 C13           -2.3355    -5.1467     0.0422 C.2     
  14 C14           -0.9237    -2.1216     0.2270 C.ar    
  15 C15           -1.6045    -4.1061    -2.1141 C.3     
  16 C16           -3.1336    -1.6120     3.2222 C.2     
  17 C17            0.1590    -2.7146     0.8465 C.ar    
  18 C18           -0.8135    -0.8415    -0.2845 C.ar    
  19 C19           -0.1010    -4.1898    -2.1740 C.ar    
  20 C20           -3.3206    -1.3499     4.5897 C.2     
  21 C21           -3.0125    -0.5231     2.3185 C.2     
  22 C22            1.3566    -2.0230     0.9596 C.ar    
  23 C23            0.3787    -0.1505    -0.1734 C.ar    
  24 C24            1.4631    -0.7373     0.4500 C.ar    
  25 C25            0.5332    -5.4228    -2.1969 C.ar    
  26 C26            0.6631    -3.0389    -2.2074 C.ar    
  27 C27           -3.3893    -0.0624     5.0330 C.2     
  28 C28           -3.0883     0.7881     2.8122 C.2     
  29 C29           -3.2762     1.0049     4.1451 C.2     
  30 C30            1.9180    -5.4515    -2.2527 C.ar    
  31 C31           -3.3567     2.4170     4.6651 C.3     
  32 C32            2.6158    -4.2587    -2.2835 C.ar    
  33 C33            3.6238    -1.8334     1.6496 C.3     
  34 H34           -2.9863    -2.2322    -0.3418 H       
  35 H35           -2.0368    -4.9755    -2.6093 H       
  36 H36           -1.9381    -3.1983    -2.6168 H       
  37 H37           -3.2777    -6.1054     2.8708 H       
  38 H38           -3.6432    -4.1036     4.3936 H       
  39 H39            0.0734    -3.7156     1.2428 H       
  40 H40           -1.6600    -0.3811    -0.7722 H       
  41 H41           -3.4102    -2.1678     5.2893 H       
  42 H42            0.4623     0.8491    -0.5737 H       
  43 H43            2.3942    -0.1970     0.5369 H       
  44 H44           -0.0382    -6.3389    -2.1715 H       
  45 H45            0.1768    -2.0747    -2.1895 H       
  46 H46           -2.9979     1.6256     2.1363 H       
  47 H47            2.4451    -6.3940    -2.2719 H       
  48 H48           -2.3578     2.7646     4.9287 H       
  49 H49           -3.7752     3.0646     3.8947 H       
  50 H50           -3.9953     2.4433     5.5481 H       
  51 H51            3.6948    -4.2725    -2.3270 H       
  52 H52            3.4307    -0.9173     2.2079 H       
  53 H53            4.3943    -2.4130     2.1578 H       
  54 H54            3.9621    -1.5817     0.6445 H       
@<TRIPOS>BOND
   1    1   27 1
   2    2   13 2
   3    3   22 1
   4    3   33 1
   5    4   21 2
   6    5    9 1
   7    5   13 am
   8    5   15 1
   9    6    7 1
  10    6   11 1
  11    6   37 1
  12    7   12 1
  13    7   38 1
  14    8   26 ar
  15    8   32 ar
  16    9   10 1
  17    9   14 1
  18    9   34 1
  19   10   11 2
  20   10   12 1
  21   11   13 1
  22   12   16 2
  23   14   17 ar
  24   14   18 ar
  25   15   19 1
  26   15   35 1
  27   15   36 1
  28   16   20 1
  29   16   21 1
  30   17   22 ar
  31   17   39 1
  32   18   23 ar
  33   18   40 1
  34   19   25 ar
  35   19   26 ar
  36   20   27 2
  37   20   41 1
  38   21   28 1
  39   22   24 ar
  40   23   24 ar
  41   23   42 1
  42   24   43 1
  43   25   30 ar
  44   25   44 1
  45   26   45 1
  46   27   29 1
  47   28   29 2
  48   28   46 1
  49   29   31 1
  50   30   32 ar
  51   30   47 1
  52   31   48 1
  53   31   49 1
  54   31   50 1
  55   32   51 1
  56   33   52 1
  57   33   53 1
  58   33   54 1

#	End of record

#	Name: 9551612
#	Creating user name:	landrgr1
#	Creation time:	28. 01. 2015 13:52

#	Modifying user name:	landrgr1
#	Modification time:	28. 01. 2015 13:52

#	Program:	corina 3.48 0006  22.01.2010

@<TRIPOS>MOLECULE
9551612
  54   55    0    0    0
SMALL
NO_CHARGES


@<TRIPOS>ATOM
   1 Cl1            0.0000     0.0000     0.0000 Cl      
   2 H2             0.0000     1.3700     0.0000 H       
   3 O3            10.3948    13.6443     6.3882 O.3     
   4 O4            14.0677    11.1625     7.3394 O.2     
   5 O5            15.6199    15.2512     6.5528 O.3     
   6 O6             8.1816    11.8417     6.0469 O.3     
   7 O7             9.6813    10.2005     6.0028 O.2     
   8 N8            15.2885     8.8379     7.2566 N.3     
   9 N9            16.8037     7.5163     9.2722 N.3     
  10 N10           12.4009    10.7260     5.9419 N.am    
  11 C11           15.9980     7.5853     6.9614 C.3     
  12 C12           14.8646     8.8810     8.6630 C.3     
  13 C13           17.2276     7.4733     7.8658 C.3     
  14 C14           16.0942     8.7690     9.5673 C.3     
  15 C15           14.1425     9.0187     6.3555 C.3     
  16 C16           17.9497     7.3355    10.1733 C.3     
  17 C17           13.5354    10.3794     6.5817 C.2     
  18 C18           11.8548    11.9895     6.1312 C.2     
  19 C19           12.5841    13.2515     6.3036 C.ar    
  20 C20           10.5263    12.3127     6.1948 C.2     
  21 C21           11.6011    14.2438     6.4591 C.ar    
  22 C22           13.9372    13.5926     6.3347 C.ar    
  23 C23           11.9911    15.5654     6.6448 C.ar    
  24 C24           14.3038    14.9110     6.5208 C.ar    
  25 C25           13.3286    15.8928     6.6752 C.ar    
  26 C26            9.4544    11.3937     6.0769 C.2     
  27 C27            7.1507    10.8594     5.9265 C.3     
  28 C28           15.9283    16.6327     6.7488 C.3     
  29 C29            5.7863    11.5514     5.9094 C.3     
  30 H30           15.3344     6.7399     7.1436 H       
  31 H31           16.3126     7.5827     5.9178 H       
  32 H32           14.3529     9.8231     8.8599 H       
  33 H33           14.1881     8.0504     8.8645 H       
  34 H34           17.9041     8.3039     7.6643 H       
  35 H35           17.7393     6.5312     7.6689 H       
  36 H36           15.7796     8.7716    10.6109 H       
  37 H37           16.7578     9.6144     9.3852 H       
  38 H38           14.4770     8.9375     5.3213 H       
  39 H39           13.3966     8.2500     6.5575 H       
  40 H40           18.6752     8.1309    10.0024 H       
  41 H41           17.6079     7.3716    11.2076 H       
  42 H42           18.4164     6.3700     9.9783 H       
  43 H43           11.9657    10.0933     5.3493 H       
  44 H44           14.6928    12.8302     6.2150 H       
  45 H45           11.2443    16.3363     6.7650 H       
  46 H46           13.6239    16.9215     6.8198 H       
  47 H47            7.2868    10.3016     5.0000 H       
  48 H48            7.2004    10.1750     6.7733 H       
  49 H49           15.5167    16.9652     7.7018 H       
  50 H50           17.0101    16.7663     6.7539 H       
  51 H51           15.4935    17.2204     5.9404 H       
  52 H52            5.6502    12.1093     6.8359 H       
  53 H53            5.7366    12.2359     5.0625 H       
  54 H54            5.0000    10.8021     5.8176 H       
@<TRIPOS>BOND
   1    1    2 1
   2    3   20 1
   3    3   21 1
   4    4   17 2
   5    5   24 1
   6    5   28 1
   7    6   26 1
   8    6   27 1
   9    7   26 2
  10    8   11 1
  11    8   12 1
  12    8   15 1
  13    9   13 1
  14    9   14 1
  15    9   16 1
  16   10   17 am
  17   10   18 1
  18   10   43 1
  19   11   13 1
  20   11   30 1
  21   11   31 1
  22   12   14 1
  23   12   32 1
  24   12   33 1
  25   13   34 1
  26   13   35 1
  27   14   36 1
  28   14   37 1
  29   15   17 1
  30   15   38 1
  31   15   39 1
  32   16   40 1
  33   16   41 1
  34   16   42 1
  35   18   19 1
  36   18   20 2
  37   19   21 ar
  38   19   22 ar
  39   20   26 1
  40   21   23 ar
  41   22   24 ar
  42   22   44 1
  43   23   25 ar
  44   23   45 1
  45   24   25 ar
  46   25   46 1
  47   27   29 1
  48   27   47 1
  49   27   48 1
  50   28   49 1
  51   28   50 1
  52   28   51 1
  53   29   52 1
  54   29   53 1
  55   29   54 1

#	End of record

#	Name: 9551592
#	Creating user name:	landrgr1
#	Creation time:	28. 01. 2015 13:52

#	Modifying user name:	landrgr1
#	Modification time:	28. 01. 2015 13:52

#	Program:	corina 3.48 0006  22.01.2010

@<TRIPOS>MOLECULE
9551592
  48   51    0    0    0
SMALL
NO_CHARGES


@<TRIPOS>ATOM
   1 F1            -7.0600    -1.0352     2.1478 F       
   2 F2            -6.1889    -3.1466     2.1009 F       
   3 F3            -6.6685    -2.0652     0.1465 F       
   4 O4             3.3803    -3.2596     4.1956 O.2     
   5 O5            -2.0407    -2.0911     4.4525 O.2     
   6 O6             0.4438     0.8970    -0.2626 O.3     
   7 N7            -0.4152    -0.9668     3.4395 N.am    
   8 N8             1.2626    -2.4559     4.2989 N.am    
   9 C9             1.7072    -0.0976     4.1973 C.3     
  10 C10            0.6063    -1.1566     4.4754 C.3     
  11 C11            1.6185     0.1146     2.6720 C.3     
  12 C12            0.1586    -0.2137     2.3194 C.3     
  13 C13            2.9942    -0.8917     4.5140 C.3     
  14 C14            1.5460     1.1917     5.0050 C.3     
  15 C15            2.6008    -2.3386     4.3178 C.2     
  16 C16            0.1117    -1.0488     1.0658 C.ar    
  17 C17           -1.6830    -1.4195     3.5046 C.2     
  18 C18            0.2583    -0.4465    -0.1756 C.ar    
  19 C19           -0.0715    -2.4151     1.1518 C.ar    
  20 C20           -2.6388    -1.0991     2.4230 C.ar    
  21 C21            0.2146    -1.2178    -1.3276 C.ar    
  22 C22           -0.1146    -3.1819     0.0018 C.ar    
  23 C23           -3.9282    -1.6326     2.4464 C.ar    
  24 C24           -2.2573    -0.2570     1.3770 C.ar    
  25 C25            0.0254    -2.5834    -1.2365 C.ar    
  26 C26           -4.8154    -1.3292     1.4342 C.ar    
  27 C27           -3.1540     0.0382     0.3714 C.ar    
  28 C28           -4.4291    -0.4987     0.3975 C.ar    
  29 C29           -6.2081    -1.9044     1.4578 C.3     
  30 H30            0.1834    -1.0562     5.4750 H       
  31 H31            1.8474     1.1496     2.4182 H       
  32 H32            2.2965    -0.5636     2.1537 H       
  33 H33           -0.4015     0.7093     2.1698 H       
  34 H34            3.7911    -0.6167     3.8231 H       
  35 H35            3.3051    -0.7179     5.5441 H       
  36 H36            1.5826     0.9605     6.0696 H       
  37 H37            2.3528     1.8805     4.7548 H       
  38 H38            0.5876     1.6527     4.7661 H       
  39 H39            0.7899    -3.2950     4.1833 H       
  40 H40           -0.1808    -2.8850     2.1181 H       
  41 H41            0.3281    -0.7513    -2.2950 H       
  42 H42           -0.2576    -4.2501     0.0713 H       
  43 H43           -4.2307    -2.2817     3.2548 H       
  44 H44           -1.2624     0.1626     1.3555 H       
  45 H45           -0.0090    -3.1844    -2.1331 H       
  46 H46            1.3718     1.1681    -0.2417 H       
  47 H47           -2.8601     0.6896    -0.4384 H       
  48 H48           -5.1273    -0.2646    -0.3925 H       
@<TRIPOS>BOND
   1    1   29 1
   2    2   29 1
   3    3   29 1
   4    4   15 2
   5    5   17 2
   6    6   18 1
   7    6   46 1
   8    7   10 1
   9    7   12 1
  10    7   17 am
  11    8   10 1
  12    8   15 am
  13    8   39 1
  14    9   10 1
  15    9   11 1
  16    9   13 1
  17    9   14 1
  18   10   30 1
  19   11   12 1
  20   11   31 1
  21   11   32 1
  22   12   16 1
  23   12   33 1
  24   13   15 1
  25   13   34 1
  26   13   35 1
  27   14   36 1
  28   14   37 1
  29   14   38 1
  30   16   18 ar
  31   16   19 ar
  32   17   20 1
  33   18   21 ar
  34   19   22 ar
  35   19   40 1
  36   20   23 ar
  37   20   24 ar
  38   21   25 ar
  39   21   41 1
  40   22   25 ar
  41   22   42 1
  42   23   26 ar
  43   23   43 1
  44   24   27 ar
  45   24   44 1
  46   25   45 1
  47   26   28 ar
  48   26   29 1
  49   27   28 ar
  50   27   47 1
  51   28   48 1

#	End of record

#	Name: 9551587
#	Creating user name:	landrgr1
#	Creation time:	28. 01. 2015 13:52

#	Modifying user name:	landrgr1
#	Modification time:	28. 01. 2015 13:52

#	Program:	corina 3.48 0006  22.01.2010

@<TRIPOS>MOLECULE
9551587
  36   38    0    0    0
SMALL
NO_CHARGES


@<TRIPOS>ATOM
   1 S1            -0.0186     1.5178     0.0104 S.o2    
   2 O2             0.0021    -0.0041     0.0020 O.3     
   3 O3             1.3390     1.9375    -0.0003 O.2     
   4 O4            -0.9617     1.9117    -0.9768 O.2     
   5 N5            -1.2710    -0.5963    -0.1811 N.2     
   6 N6            -0.2676    -2.6905    -0.0557 N.pl3   
   7 N7            -5.1809    -3.6552    -0.7518 N.ar    
   8 C8            -0.3721     2.6284     3.8550 C.ar    
   9 C9            -1.7708     2.8158     3.9878 C.ar    
  10 C10           -0.6830     2.0218     1.5625 C.ar    
  11 C11            0.1545     2.2258     2.6156 C.ar    
  12 C12           -2.6040     2.5954     2.8776 C.ar    
  13 C13           -2.0584     2.2061     1.6931 C.ar    
  14 C14            0.4603     2.8431     4.9663 C.ar    
  15 C15           -2.2972     3.2178     5.2269 C.ar    
  16 C16           -0.0857     3.2272     6.1526 C.ar    
  17 C17           -1.4595     3.4214     6.2804 C.ar    
  18 C18           -2.7200    -2.5104    -0.3987 C.ar    
  19 C19           -1.3880    -1.8908    -0.2071 C.2     
  20 C20           -2.8679    -3.9006    -0.4298 C.ar    
  21 C21           -3.8640    -1.7212    -0.5530 C.ar    
  22 C22           -4.1273    -4.4358    -0.6101 C.ar    
  23 C23           -5.0853    -2.3400    -0.7286 C.ar    
  24 H24            1.2182     2.0795     2.4995 H       
  25 H25           -3.6715     2.7339     2.9640 H       
  26 H26           -2.7008     2.0378     0.8415 H       
  27 H27            1.5278     2.7037     4.8798 H       
  28 H28           -3.3608     3.3649     5.3428 H       
  29 H29            0.5564     3.3915     7.0053 H       
  30 H30           -1.8667     3.7307     7.2317 H       
  31 H31           -2.0096    -4.5458    -0.3141 H       
  32 H32           -3.7931    -0.6437    -0.5347 H       
  33 H33           -4.2517    -5.5083    -0.6352 H       
  34 H34           -5.9745    -1.7390    -0.8490 H       
  35 H35            0.6045    -2.2847     0.0697 H       
  36 H36           -0.3550    -3.6563    -0.0752 H       
@<TRIPOS>BOND
   1    1    2 1
   2    1    3 2
   3    1    4 2
   4    1   10 1
   5    2    5 1
   6    5   19 2
   7    6   19 1
   8    6   35 1
   9    6   36 1
  10    7   22 ar
  11    7   23 ar
  12    8    9 ar
  13    8   11 ar
  14    8   14 ar
  15    9   12 ar
  16    9   15 ar
  17   10   11 ar
  18   10   13 ar
  19   11   24 1
  20   12   13 ar
  21   12   25 1
  22   13   26 1
  23   14   16 ar
  24   14   27 1
  25   15   17 ar
  26   15   28 1
  27   16   17 ar
  28   16   29 1
  29   17   30 1
  30   18   19 1
  31   18   20 ar
  32   18   21 ar
  33   20   22 ar
  34   20   31 1
  35   21   23 ar
  36   21   32 1
  37   22   33 1
  38   23   34 1

#	End of record

#	Name: 9551505
#	Creating user name:	landrgr1
#	Creation time:	28. 01. 2015 13:52

#	Modifying user name:	landrgr1
#	Modification time:	28. 01. 2015 13:52

#	Program:	corina 3.48 0006  22.01.2010

@<TRIPOS>MOLECULE
9551505
  44   46    0    0    0
SMALL
NO_CHARGES


@<TRIPOS>ATOM
   1 O1            -0.0171     1.4097     0.0098 O.3     
   2 O2             0.5432     3.5577    -1.4322 O.2     
   3 O3             2.4065    -5.9297    -0.8125 O.3     
   4 N4             2.6916     3.7349    -0.9081 N.am    
   5 N5             5.8088     7.1977    -2.3956 N.pl3   
   6 N6             0.0021    -0.0041     0.0020 N.2     
   7 N7             7.5706     8.2559    -1.7376 N.2     
   8 C8             1.3513     1.8643    -0.0008 C.3     
   9 C9             2.0756     0.6688    -0.6644 C.3     
  10 C10            4.2777     5.4500    -1.6321 C.3     
  11 C11            2.8346     4.9486    -1.7160 C.3     
  12 C12            1.1403    -0.4884    -0.3694 C.2     
  13 C13            1.4985     3.1128    -0.8319 C.2     
  14 C14            4.4271     6.7176    -2.4759 C.3     
  15 C15            1.4737    -1.9208    -0.4858 C.ar    
  16 C16            0.5148    -2.8901    -0.1816 C.ar    
  17 C17            2.7473    -2.3116    -0.9060 C.ar    
  18 C18            6.8392     6.8497    -3.2268 C.2     
  19 C19            6.3025     8.0707    -1.4913 C.2     
  20 C20            0.8302    -4.2268    -0.2921 C.ar    
  21 C21            3.0544    -3.6504    -1.0139 C.ar    
  22 C22            2.0996    -4.6111    -0.7053 C.ar    
  23 C23            7.9275     7.5177    -2.7990 C.2     
  24 C24            3.7298    -6.2549    -1.2428 C.3     
  25 H25            1.7161     2.0274     1.0133 H       
  26 H26            2.1729     0.8234    -1.7390 H       
  27 H27            3.0509     0.5045    -0.2062 H       
  28 H28            4.5250     5.6732    -0.5943 H       
  29 H29            4.9520     4.6811    -2.0091 H       
  30 H30            2.5873     4.7254    -2.7539 H       
  31 H31            2.1603     5.7176    -1.3391 H       
  32 H32            3.7527     7.4865    -2.0990 H       
  33 H33            4.1797     6.4944    -3.5138 H       
  34 H34            3.4557     3.3791    -0.4280 H       
  35 H35           -0.4722    -2.5921     0.1401 H       
  36 H36            3.4901    -1.5653    -1.1464 H       
  37 H37            6.7891     6.1699    -4.0645 H       
  38 H38            5.7408     8.5385    -0.6963 H       
  39 H39            0.0896    -4.9768    -0.0568 H       
  40 H40            4.0387    -3.9534    -1.3390 H       
  41 H41            8.9145     7.4680    -3.2345 H       
  42 H42            3.9042    -5.8322    -2.2323 H       
  43 H43            4.4525    -5.8423    -0.5389 H       
  44 H44            3.8420    -7.3383    -1.2856 H       
@<TRIPOS>BOND
   1    1    6 1
   2    1    8 1
   3    2   13 2
   4    3   22 1
   5    3   24 1
   6    4   11 1
   7    4   13 am
   8    4   34 1
   9    5   14 1
  10    5   18 1
  11    5   19 1
  12    6   12 2
  13    7   19 2
  14    7   23 1
  15    8    9 1
  16    8   13 1
  17    8   25 1
  18    9   12 1
  19    9   26 1
  20    9   27 1
  21   10   11 1
  22   10   14 1
  23   10   28 1
  24   10   29 1
  25   11   30 1
  26   11   31 1
  27   12   15 1
  28   14   32 1
  29   14   33 1
  30   15   16 ar
  31   15   17 ar
  32   16   20 ar
  33   16   35 1
  34   17   21 ar
  35   17   36 1
  36   18   23 2
  37   18   37 1
  38   19   38 1
  39   20   22 ar
  40   20   39 1
  41   21   22 ar
  42   21   40 1
  43   23   41 1
  44   24   42 1
  45   24   43 1
  46   24   44 1

#	End of record

#	Name: 9551503
#	Creating user name:	landrgr1
#	Creation time:	28. 01. 2015 13:52

#	Modifying user name:	landrgr1
#	Modification time:	28. 01. 2015 13:52

#	Program:	corina 3.48 0006  22.01.2010

@<TRIPOS>MOLECULE
9551503
  44   46    0    0    0
SMALL
NO_CHARGES


@<TRIPOS>ATOM
   1 O1            -0.0171     1.4097     0.0098 O.3     
   2 O2             0.5435     3.5573    -1.4328 O.2     
   3 O3            -0.0952    -5.1796    -0.0008 O.3     
   4 N4             2.6919     3.7345    -0.9085 N.am    
   5 N5             5.8096     7.1965    -2.3965 N.pl3   
   6 N6             0.0021    -0.0041     0.0020 N.2     
   7 N7             7.5714     8.2548    -1.7386 N.2     
   8 C8             1.3514     1.8642    -0.0008 C.3     
   9 C9             2.0754     0.6683    -0.6641 C.3     
  10 C10            4.2783     5.4492    -1.6328 C.3     
  11 C11            2.8352     4.9479    -1.7167 C.3     
  12 C12            1.1396    -0.4884    -0.3690 C.2     
  13 C13            1.4987     3.1125    -0.8322 C.2     
  14 C14            4.4278     6.7165    -2.4769 C.3     
  15 C15            1.4726    -1.9221    -0.4860 C.ar    
  16 C16            0.5149    -2.8904    -0.1832 C.ar    
  17 C17            2.7456    -2.3139    -0.9058 C.ar    
  18 C18            6.8401     6.8482    -3.2276 C.2     
  19 C19            6.3033     8.0697    -1.4924 C.2     
  20 C20            0.8346    -4.2331    -0.2953 C.ar    
  21 C21            3.0532    -3.6544    -1.0139 C.ar    
  22 C22            2.1045    -4.6129    -0.7078 C.ar    
  23 C23            7.9284     7.5162    -2.7998 C.2     
  24 C24            0.3029    -6.5451    -0.1384 C.3     
  25 H25            1.7162     2.0274     1.0133 H       
  26 H26            2.1729     0.8227    -1.7387 H       
  27 H27            3.0505     0.5038    -0.2057 H       
  28 H28            4.5255     5.6726    -0.5950 H       
  29 H29            4.9526     4.6801    -2.0095 H       
  30 H30            2.5879     4.7245    -2.7545 H       
  31 H31            2.1609     5.7170    -1.3400 H       
  32 H32            3.7536     7.4856    -2.1002 H       
  33 H33            4.1806     6.4931    -3.5147 H       
  34 H34            3.4559     3.3787    -0.4282 H       
  35 H35           -0.4726    -2.5936     0.1380 H       
  36 H36            3.4887    -1.5680    -1.1460 H       
  37 H37            6.7900     6.1682    -4.0651 H       
  38 H38            5.7416     8.5378    -0.6976 H       
  39 H39            4.0379    -3.9563    -1.3390 H       
  40 H40            2.3511    -5.6608    -0.7944 H       
  41 H41            8.9155     7.4663    -3.2352 H       
  42 H42           -0.5309    -7.1951     0.1269 H       
  43 H43            0.5978    -6.7353    -1.1703 H       
  44 H44            1.1454    -6.7463     0.5233 H       
@<TRIPOS>BOND
   1    1    6 1
   2    1    8 1
   3    2   13 2
   4    3   20 1
   5    3   24 1
   6    4   11 1
   7    4   13 am
   8    4   34 1
   9    5   14 1
  10    5   18 1
  11    5   19 1
  12    6   12 2
  13    7   19 2
  14    7   23 1
  15    8    9 1
  16    8   13 1
  17    8   25 1
  18    9   12 1
  19    9   26 1
  20    9   27 1
  21   10   11 1
  22   10   14 1
  23   10   28 1
  24   10   29 1
  25   11   30 1
  26   11   31 1
  27   12   15 1
  28   14   32 1
  29   14   33 1
  30   15   16 ar
  31   15   17 ar
  32   16   20 ar
  33   16   35 1
  34   17   21 ar
  35   17   36 1
  36   18   23 2
  37   18   37 1
  38   19   38 1
  39   20   22 ar
  40   21   22 ar
  41   21   39 1
  42   22   40 1
  43   23   41 1
  44   24   42 1
  45   24   43 1
  46   24   44 1

#	End of record

#	Name: 9551492
#	Creating user name:	landrgr1
#	Creation time:	28. 01. 2015 13:52

#	Modifying user name:	landrgr1
#	Modification time:	28. 01. 2015 13:52

#	Program:	corina 3.48 0006  22.01.2010

@<TRIPOS>MOLECULE
9551492
  52   54    0    0    0
SMALL
NO_CHARGES


@<TRIPOS>ATOM
   1 S1             0.5727     3.0497    -0.2198 S.o2    
   2 S2             1.5554     5.7607     0.9869 S.3     
   3 O3            -0.0733     1.9730     0.4455 O.2     
   4 O4             1.9556     2.9883    -0.5411 O.2     
   5 O5            -1.7069     4.0040    -3.9261 O.2     
   6 O6            -4.3378     3.2428   -10.4263 O.2     
   7 N7            -1.2773     2.1075    -4.9941 N.am    
   8 N8            -5.7692     4.2458    -9.0557 N.am    
   9 C9            -0.3929     3.5783    -1.6616 C.3     
  10 C10           -0.3615     2.4805    -2.7268 C.3     
  11 C11            0.4485     4.3959     0.9102 C.2     
  12 C12           -1.1637     2.9197    -3.9246 C.2     
  13 C13           -2.1077     2.4648    -6.0558 C.ar    
  14 C14           -6.6411     4.6221   -10.1712 C.3     
  15 C15           -0.4997     4.5363     1.8377 C.2     
  16 C16           -7.8310     5.3822    -9.6445 C.ar    
  17 C17           -3.7577     3.1753    -8.1657 C.ar    
  18 C18           -1.7652     2.1067    -7.3559 C.ar    
  19 C19           -3.2798     3.1737    -5.8121 C.ar    
  20 C20           -2.5826     2.4583    -8.4064 C.ar    
  21 C21           -4.1019     3.5281    -6.8579 C.ar    
  22 C22           -4.6362     3.5543    -9.2895 C.2     
  23 C23           -0.3935     5.6787     2.6122 C.2     
  24 C24           -7.7751     6.7583    -9.5266 C.ar    
  25 C25           -8.9804     4.7037    -9.2845 C.ar    
  26 C26          -10.0141     6.7766    -8.6785 C.ar    
  27 C27            0.6410     6.4660     2.3136 C.2     
  28 C28           -8.8666     7.4556    -9.0434 C.ar    
  29 C29          -10.0719     5.4010    -8.8013 C.ar    
  30 C30          -11.2038     7.5367    -8.1512 C.3     
  31 H31           -1.4240     3.7630    -1.3604 H       
  32 H32            0.0357     4.4934    -2.0702 H       
  33 H33            0.6697     2.2958    -3.0280 H       
  34 H34           -0.7901     1.5654    -2.3182 H       
  35 H35           -0.7814     1.2744    -5.0253 H       
  36 H36           -6.0879     5.2511   -10.8687 H       
  37 H37           -6.9825     3.7232   -10.6847 H       
  38 H38           -1.2906     3.8136     1.9740 H       
  39 H39           -0.8569     1.5526    -7.5412 H       
  40 H40           -3.5452     3.4460    -4.8012 H       
  41 H41           -6.0073     4.4944    -8.1488 H       
  42 H42           -2.3139     2.1838    -9.4157 H       
  43 H43           -5.0092     4.0825    -6.6686 H       
  44 H44           -6.8786     7.2888    -9.8117 H       
  45 H45           -9.0258     3.6290    -9.3811 H       
  46 H46           -1.0952     5.9149     3.3984 H       
  47 H47            0.8807     7.3944     2.8106 H       
  48 H48           -8.8227     8.5307    -8.9506 H       
  49 H49          -10.9700     4.8710    -8.5204 H       
  50 H50          -11.8525     7.8173    -8.9810 H       
  51 H51          -11.7572     6.9074    -7.4542 H       
  52 H52          -10.8623     8.4351    -7.6372 H       
@<TRIPOS>BOND
   1    1    3 2
   2    1    4 2
   3    1    9 1
   4    1   11 1
   5    2   11 1
   6    2   27 1
   7    5   12 2
   8    6   22 2
   9    7   12 am
  10    7   13 1
  11    7   35 1
  12    8   14 1
  13    8   22 am
  14    8   41 1
  15    9   10 1
  16    9   31 1
  17    9   32 1
  18   10   12 1
  19   10   33 1
  20   10   34 1
  21   11   15 2
  22   13   18 ar
  23   13   19 ar
  24   14   16 1
  25   14   36 1
  26   14   37 1
  27   15   23 1
  28   15   38 1
  29   16   24 ar
  30   16   25 ar
  31   17   20 ar
  32   17   21 ar
  33   17   22 1
  34   18   20 ar
  35   18   39 1
  36   19   21 ar
  37   19   40 1
  38   20   42 1
  39   21   43 1
  40   23   27 2
  41   23   46 1
  42   24   28 ar
  43   24   44 1
  44   25   29 ar
  45   25   45 1
  46   26   28 ar
  47   26   29 ar
  48   26   30 1
  49   27   47 1
  50   28   48 1
  51   29   49 1
  52   30   50 1
  53   30   51 1
  54   30   52 1

#	End of record

#	Name: 9551470
#	Creating user name:	landrgr1
#	Creation time:	28. 01. 2015 13:52

#	Modifying user name:	landrgr1
#	Modification time:	28. 01. 2015 13:52

#	Program:	corina 3.48 0006  22.01.2010

@<TRIPOS>MOLECULE
9551470
  55   57    0    0    0
SMALL
NO_CHARGES


@<TRIPOS>ATOM
   1 O1             2.1314    -0.1558    -2.3091 O.2     
   2 O2             8.2094     3.3238    -1.6123 O.2     
   3 O3            10.1340    -0.5730    -2.4832 O.2     
   4 N4             2.4442    -3.3303     1.2744 N.3     
   5 N5             2.9309    -1.7112    -0.9407 N.am    
   6 N6             9.2113     1.3761    -2.0468 N.am    
   7 N7             7.9463    -0.6055    -2.2364 N.am    
   8 C8             3.6773    -2.5332     1.2297 C.3     
   9 C9             1.3226    -2.6121     0.6547 C.3     
  10 C10            4.0773    -2.2988    -0.2309 C.3     
  11 C11            1.6260    -2.3808    -0.8294 C.3     
  12 C12            2.1208    -3.7229     2.6526 C.3     
  13 C13            3.0722    -0.5888    -1.6733 C.2     
  14 C14            4.3737     0.1166    -1.7035 C.ar    
  15 C15            0.7168    -4.3296     2.6940 C.3     
  16 C16           10.5272     2.0185    -2.0897 C.3     
  17 C17            6.7586     0.0677    -1.9857 C.ar    
  18 C18           11.1452     2.0091    -0.6901 C.3     
  19 C19            6.8016     1.4544    -1.7616 C.ar    
  20 C20            5.5427    -0.5964    -1.9584 C.ar    
  21 C21           12.5195     2.6801    -0.7349 C.3     
  22 C22            4.4231     1.4951    -1.4765 C.ar    
  23 C23            8.1158     2.1263    -1.7994 C.2     
  24 C24            5.6283     2.1612    -1.5075 C.ar    
  25 C25            9.1169     0.0543    -2.2596 C.2     
  26 C26           13.1375     2.6707     0.6647 C.3     
  27 C27           14.5118     3.3416     0.6199 C.3     
  28 H28            3.5083    -1.5740     1.7190 H       
  29 H29            4.4754    -3.0687     1.7439 H       
  30 H30            0.4130    -3.2047     0.7519 H       
  31 H31            1.1864    -1.6517     1.1520 H       
  32 H32            4.3470    -3.2481    -0.6936 H       
  33 H33            4.9242    -1.6139    -0.2732 H       
  34 H34            0.8524    -1.7502    -1.2674 H       
  35 H35            1.6602    -3.3380    -1.3497 H       
  36 H36            2.8453    -4.4594     3.0001 H       
  37 H37            2.1566    -2.8454     3.2982 H       
  38 H38           -0.0076    -3.5931     2.3465 H       
  39 H39            0.6811    -5.2071     2.0483 H       
  40 H40            0.4769    -4.6209     3.7165 H       
  41 H41           11.1751     1.4741    -2.7766 H       
  42 H42           10.4181     3.0477    -2.4318 H       
  43 H43           10.4973     2.5536    -0.0032 H       
  44 H44           11.2542     0.9800    -0.3480 H       
  45 H45            5.5017    -1.6614    -2.1334 H       
  46 H46           13.1674     2.1356    -1.4218 H       
  47 H47           12.4104     3.7092    -1.0770 H       
  48 H48            3.5120     2.0408    -1.2799 H       
  49 H49            5.6636     3.2268    -1.3352 H       
  50 H50            7.9317    -1.5627    -2.3928 H       
  51 H51           12.4895     3.2151     1.3516 H       
  52 H52           13.2465     1.6415     1.0068 H       
  53 H53           15.1597     2.7971    -0.0670 H       
  54 H54           14.4027     4.3708     0.2778 H       
  55 H55           14.9520     3.3349     1.6170 H       
@<TRIPOS>BOND
   1    1   13 2
   2    2   23 2
   3    3   25 2
   4    4    8 1
   5    4    9 1
   6    4   12 1
   7    5   10 1
   8    5   11 1
   9    5   13 am
  10    6   16 1
  11    6   23 am
  12    6   25 am
  13    7   17 1
  14    7   25 am
  15    7   50 1
  16    8   10 1
  17    8   28 1
  18    8   29 1
  19    9   11 1
  20    9   30 1
  21    9   31 1
  22   10   32 1
  23   10   33 1
  24   11   34 1
  25   11   35 1
  26   12   15 1
  27   12   36 1
  28   12   37 1
  29   13   14 1
  30   14   20 ar
  31   14   22 ar
  32   15   38 1
  33   15   39 1
  34   15   40 1
  35   16   18 1
  36   16   41 1
  37   16   42 1
  38   17   19 ar
  39   17   20 ar
  40   18   21 1
  41   18   43 1
  42   18   44 1
  43   19   23 1
  44   19   24 ar
  45   20   45 1
  46   21   26 1
  47   21   46 1
  48   21   47 1
  49   22   24 ar
  50   22   48 1
  51   24   49 1
  52   26   27 1
  53   26   51 1
  54   26   52 1
  55   27   53 1
  56   27   54 1
  57   27   55 1

#	End of record

#	Name: 9551437
#	Creating user name:	landrgr1
#	Creation time:	28. 01. 2015 13:52

#	Modifying user name:	landrgr1
#	Modification time:	28. 01. 2015 13:52

#	Program:	corina 3.48 0006  22.01.2010

@<TRIPOS>MOLECULE
9551437
  42   44    0    0    0
SMALL
NO_CHARGES


@<TRIPOS>ATOM
   1 S1             0.3558     1.4511     0.1946 S.3     
   2 O2            -2.0050    -0.7142     0.0934 O.2     
   3 O3             0.6895    -4.2303     0.2102 O.2     
   4 O4            -3.9011    -5.0070    -0.3767 O.2     
   5 O5            -7.9830    -8.7296    -2.7763 O.3     
   6 N6            -0.6872    -2.5046     0.1510 N.am    
   7 N7             1.6412    -2.2392     0.2502 N.am    
   8 N8            -3.8603    -5.0493    -2.5946 N.am    
   9 C9            -1.8448    -3.4012     0.1022 C.3     
  10 C10           -2.1866    -3.7140    -1.3559 C.3     
  11 C11           -0.8772    -1.1717     0.1423 C.2     
  12 C12            0.2431    -0.3034     0.1899 C.2     
  13 C13            1.5157    -0.8434     0.2446 C.2     
  14 C14            0.5518    -3.0221     0.2035 C.2     
  15 C15           -3.3773    -4.6363    -1.4061 C.2     
  16 C16            2.4984     0.1385     0.2868 C.2     
  17 C17           -4.9048    -5.9820    -2.6405 C.ar    
  18 C18            2.0576     1.3943     0.2677 C.2     
  19 C19           -5.8994    -5.9591    -1.6720 C.ar    
  20 C20           -4.9488    -6.9260    -3.6577 C.ar    
  21 C21           -6.9694    -7.8245    -2.7317 C.ar    
  22 C22           -6.9289    -6.8783    -1.7181 C.ar    
  23 C23           -5.9788    -7.8446    -3.7027 C.ar    
  24 C24           -7.9619    -9.6751    -3.8475 C.3     
  25 C25           -9.1722   -10.6040    -3.7319 C.3     
  26 H26           -1.6095    -4.3271     0.6270 H       
  27 H27           -2.6979    -2.9195     0.5801 H       
  28 H28           -2.4219    -2.7880    -1.8807 H       
  29 H29           -1.3335    -4.1957    -1.8338 H       
  30 H30            2.5224    -2.6428     0.2878 H       
  31 H31            3.5504    -0.1016     0.3324 H       
  32 H32           -3.4847    -4.7008    -3.4183 H       
  33 H33            2.6961     2.2649     0.2947 H       
  34 H34           -5.8678    -5.2227    -0.8826 H       
  35 H35           -4.1778    -6.9415    -4.4139 H       
  36 H36           -7.7024    -6.8608    -0.9646 H       
  37 H37           -6.0133    -8.5787    -4.4941 H       
  38 H38           -7.9996    -9.1461    -4.7998 H       
  39 H39           -7.0459   -10.2636    -3.7948 H       
  40 H40           -9.1345   -11.1330    -2.7796 H       
  41 H41          -10.0882   -10.0155    -3.7847 H       
  42 H42           -9.1561   -11.3252    -4.5491 H       
@<TRIPOS>BOND
   1    1   12 1
   2    1   18 1
   3    2   11 2
   4    3   14 2
   5    4   15 2
   6    5   21 1
   7    5   24 1
   8    6    9 1
   9    6   11 am
  10    6   14 am
  11    7   13 1
  12    7   14 am
  13    7   30 1
  14    8   15 am
  15    8   17 1
  16    8   32 1
  17    9   10 1
  18    9   26 1
  19    9   27 1
  20   10   15 1
  21   10   28 1
  22   10   29 1
  23   11   12 1
  24   12   13 2
  25   13   16 1
  26   16   18 2
  27   16   31 1
  28   17   19 ar
  29   17   20 ar
  30   18   33 1
  31   19   22 ar
  32   19   34 1
  33   20   23 ar
  34   20   35 1
  35   21   22 ar
  36   21   23 ar
  37   22   36 1
  38   23   37 1
  39   24   25 1
  40   24   38 1
  41   24   39 1
  42   25   40 1
  43   25   41 1
  44   25   42 1

#	End of record

#	Name: 9551431
#	Creating user name:	landrgr1
#	Creation time:	28. 01. 2015 13:52

#	Modifying user name:	landrgr1
#	Modification time:	28. 01. 2015 13:52

#	Program:	corina 3.48 0006  22.01.2010

@<TRIPOS>MOLECULE
9551431
  49   50    0    0    0
SMALL
NO_CHARGES


@<TRIPOS>ATOM
   1 Br1           -2.3085     5.6222    -3.2997 Br      
   2 S2            -0.9692     2.1391     0.8144 S.o2    
   3 O3            -0.4160     3.4009     1.1625 O.2     
   4 O4            -1.9188     1.4984     1.6552 O.2     
   5 O5            -1.3055     0.0509     0.7793 O.2     
   6 O6             2.3030    -0.7775     0.0202 O.2     
   7 O7             3.4147    -3.6351     3.6727 O.3     
   8 N8            -2.8749     0.1417    -0.7861 N.am    
   9 N9             2.7272    -1.2794     2.1392 N.am    
  10 C10           -2.6430     1.4444    -1.2397 C.ar    
  11 C11           -4.1041     0.4669    -2.8050 C.3     
  12 C12           -3.3289     1.7053    -2.4149 C.ar    
  13 C13           -3.7817    -0.5550    -1.7025 C.3     
  14 C14           -1.8505     2.4484    -0.6797 C.ar    
  15 C15           -3.2299     2.9413    -3.0246 C.ar    
  16 C16            0.3413     0.9800     0.3352 C.3     
  17 C17           -1.7548     3.6804    -1.2902 C.ar    
  18 C18           -2.3385    -0.3958     0.3273 C.2     
  19 C19           -2.4430     3.9311    -2.4642 C.ar    
  20 C20            0.9540     0.3557     1.5905 C.3     
  21 C21           -3.0223    -1.5519     1.0107 C.3     
  22 C22            2.0427    -0.6073     1.1925 C.2     
  23 C23           -2.2129    -1.9685     2.2404 C.3     
  24 C24            3.7855    -2.2156     1.7523 C.3     
  25 C25            4.3982    -2.8399     3.0076 C.3     
  26 C26            3.8868    -4.2667     4.8644 C.3     
  27 H27           -5.1731     0.6785    -2.8263 H       
  28 H28           -3.7692     0.0984    -3.7746 H       
  29 H29           -3.2899    -1.4291    -2.1292 H       
  30 H30           -4.6929    -0.8494    -1.1817 H       
  31 H31           -0.0798     0.1947    -0.2926 H       
  32 H32            1.1134     1.5134    -0.2191 H       
  33 H33           -3.7684     3.1351    -3.9405 H       
  34 H34           -1.1405     4.4525    -0.8510 H       
  35 H35            1.3752     1.1409     2.2183 H       
  36 H36            0.1819    -0.1778     2.1449 H       
  37 H37           -4.0234    -1.2508     1.3196 H       
  38 H38           -3.0925    -2.3922     0.3201 H       
  39 H39           -2.1427    -1.1281     2.9310 H       
  40 H40           -2.7075    -2.8047     2.7347 H       
  41 H41           -1.2119    -2.2696     1.9316 H       
  42 H42            2.5190    -1.1433     3.0768 H       
  43 H43            3.3644    -3.0008     1.1245 H       
  44 H44            4.5576    -1.6821     1.1979 H       
  45 H45            4.7398    -2.0500     3.6765 H       
  46 H46            5.2433    -3.4679     2.7256 H       
  47 H47            3.0815    -4.8510     5.3094 H       
  48 H48            4.7213    -4.9243     4.6210 H       
  49 H49            4.2178    -3.5064     5.5719 H       
@<TRIPOS>BOND
   1    1   19 1
   2    2    3 2
   3    2    4 2
   4    2   14 1
   5    2   16 1
   6    5   18 2
   7    6   22 2
   8    7   25 1
   9    7   26 1
  10    8   10 1
  11    8   13 1
  12    8   18 am
  13    9   22 am
  14    9   24 1
  15    9   42 1
  16   10   12 ar
  17   10   14 ar
  18   11   12 1
  19   11   13 1
  20   11   27 1
  21   11   28 1
  22   12   15 ar
  23   13   29 1
  24   13   30 1
  25   14   17 ar
  26   15   19 ar
  27   15   33 1
  28   16   20 1
  29   16   31 1
  30   16   32 1
  31   17   19 ar
  32   17   34 1
  33   18   21 1
  34   20   22 1
  35   20   35 1
  36   20   36 1
  37   21   23 1
  38   21   37 1
  39   21   38 1
  40   23   39 1
  41   23   40 1
  42   23   41 1
  43   24   25 1
  44   24   43 1
  45   24   44 1
  46   25   45 1
  47   25   46 1
  48   26   47 1
  49   26   48 1
  50   26   49 1

#	End of record

#	Name: 9551316
#	Creating user name:	landrgr1
#	Creation time:	28. 01. 2015 13:52

#	Modifying user name:	landrgr1
#	Modification time:	28. 01. 2015 13:52

#	Program:	corina 3.48 0006  22.01.2010

@<TRIPOS>MOLECULE
9551316
  45   47    0    0    0
SMALL
NO_CHARGES


@<TRIPOS>ATOM
   1 O1             3.4732     6.6255    -0.3862 O.2     
   2 N2            -0.0169     1.3967     0.0097 N.pl3   
   3 N3             3.3617     6.8210    -2.5933 N.am    
   4 N4            -1.6722     3.0586     0.0430 N.2     
   5 N5             0.0021    -0.0041     0.0020 N.2     
   6 N6            -2.0527     0.6478     0.0353 N.2     
   7 C7             0.6054     3.6543     0.0159 C.2     
   8 C8             1.6620     4.7289     0.0116 C.3     
   9 C9             1.9162     5.1884    -1.4255 C.3     
  10 C10            0.9591     2.3434     0.0055 C.2     
  11 C11           -0.7525     3.9963     0.0350 C.2     
  12 C12            2.9728     6.2629    -1.4298 C.2     
  13 C13            4.3888     7.8656    -2.5975 C.3     
  14 C14           -1.3331     1.7642     0.0308 C.2     
  15 C15            4.6430     8.3251    -4.0346 C.3     
  16 C16            2.4121     1.9436    -0.0100 C.3     
  17 C17           -1.1604     5.4470     0.0485 C.3     
  18 C18            5.6996     9.3996    -4.0389 C.ar    
  19 C19           -1.2469    -0.4052     0.0118 C.2     
  20 C20            7.0335     9.0569    -4.1578 C.ar    
  21 C21            5.3345    10.7284    -3.9296 C.ar    
  22 C22            8.0027    10.0426    -4.1617 C.ar    
  23 C23            6.3037    11.7141    -3.9336 C.ar    
  24 C24            7.6380    11.3710    -4.0472 C.ar    
  25 H25            1.3222     5.5750     0.6088 H       
  26 H26            2.5850     4.3326     0.4350 H       
  27 H27            2.2561     4.3422    -2.0227 H       
  28 H28            0.9933     5.5846    -1.8489 H       
  29 H29            4.0490     8.7117    -2.0003 H       
  30 H30            5.3118     7.4693    -2.1741 H       
  31 H31            4.9829     7.4790    -4.6319 H       
  32 H32            3.7201     8.7213    -4.4580 H       
  33 H33            2.4897     0.8564    -0.0163 H       
  34 H34            2.8904     2.3471    -0.9024 H       
  35 H35            2.9069     2.3381     0.8774 H       
  36 H36            2.9615     6.5310    -3.4280 H       
  37 H37           -2.2479     5.5185     0.0643 H       
  38 H38           -0.7515     5.9311     0.9354 H       
  39 H39           -0.7767     5.9406    -0.8444 H       
  40 H40           -1.5695    -1.4358     0.0093 H       
  41 H41            7.3185     8.0190    -4.2473 H       
  42 H42            4.2920    10.9965    -3.8415 H       
  43 H43            9.0449     9.7747    -4.2539 H       
  44 H44            6.0184    12.7522    -3.8486 H       
  45 H45            8.3952    12.1410    -4.0499 H       
@<TRIPOS>BOND
   1    1   12 2
   2    2    5 1
   3    2   10 1
   4    2   14 1
   5    3   12 am
   6    3   13 1
   7    3   36 1
   8    4   11 2
   9    4   14 1
  10    5   19 2
  11    6   14 2
  12    6   19 1
  13    7    8 1
  14    7   10 2
  15    7   11 1
  16    8    9 1
  17    8   25 1
  18    8   26 1
  19    9   12 1
  20    9   27 1
  21    9   28 1
  22   10   16 1
  23   11   17 1
  24   13   15 1
  25   13   29 1
  26   13   30 1
  27   15   18 1
  28   15   31 1
  29   15   32 1
  30   16   33 1
  31   16   34 1
  32   16   35 1
  33   17   37 1
  34   17   38 1
  35   17   39 1
  36   18   20 ar
  37   18   21 ar
  38   19   40 1
  39   20   22 ar
  40   20   41 1
  41   21   23 ar
  42   21   42 1
  43   22   24 ar
  44   22   43 1
  45   23   24 ar
  46   23   44 1
  47   24   45 1

#	End of record

#	Name: 9551287
#	Creating user name:	landrgr1
#	Creation time:	28. 01. 2015 13:52

#	Modifying user name:	landrgr1
#	Modification time:	28. 01. 2015 13:52

#	Program:	corina 3.48 0006  22.01.2010

@<TRIPOS>MOLECULE
9551287
  27   29    0    0    0
SMALL
NO_CHARGES


@<TRIPOS>ATOM
   1 S1            -0.0220     1.7685     0.0118 S.3     
   2 S2             0.1223     4.6003     0.0248 S.3     
   3 O3             3.4029     0.2432    -0.0287 O.2     
   4 N4             1.2627    -0.3689    -0.0120 N.2     
   5 C5            -1.1723    -0.8993     0.0092 C.ar    
   6 C6             0.0021    -0.0041     0.0020 C.2     
   7 C7             1.7468     1.9259    -0.0043 C.2     
   8 C8             2.4988     3.0790    -0.0049 C.2     
   9 C9             1.8608     4.3374     0.0079 C.2     
  10 C10           -0.9981    -2.2851    -0.0000 C.ar    
  11 C11           -2.4622    -0.3643     0.0310 C.ar    
  12 C12            2.2168     0.5367    -0.0162 C.2     
  13 C13            2.4976     5.5544     0.0084 C.2     
  14 C14           -2.0995    -3.1154     0.0072 C.ar    
  15 C15           -3.5546    -1.2064     0.0380 C.ar    
  16 C16           -3.3747    -2.5784     0.0230 C.ar    
  17 C17            1.6302     6.6185     0.0216 C.2     
  18 C18            0.3304     6.2935     0.0315 C.2     
  19 H19            3.5772     3.0204    -0.0151 H       
  20 H20           -0.0034    -2.7055    -0.0131 H       
  21 H21           -2.6040     0.7063     0.0427 H       
  22 H22            3.5721     5.6633    -0.0001 H       
  23 H23           -1.9663    -4.1871     0.0001 H       
  24 H24           -4.5526    -0.7940     0.0549 H       
  25 H25           -4.2336    -3.2331     0.0283 H       
  26 H26            1.9708     7.6434     0.0237 H       
  27 H27           -0.4786     7.0089     0.0420 H       
@<TRIPOS>BOND
   1    1    6 1
   2    1    7 1
   3    2    9 1
   4    2   18 1
   5    3   12 2
   6    4    6 2
   7    4   12 1
   8    5    6 1
   9    5   10 ar
  10    5   11 ar
  11    7    8 2
  12    7   12 1
  13    8    9 1
  14    8   19 1
  15    9   13 2
  16   10   14 ar
  17   10   20 1
  18   11   15 ar
  19   11   21 1
  20   13   17 1
  21   13   22 1
  22   14   16 ar
  23   14   23 1
  24   15   16 ar
  25   15   24 1
  26   16   25 1
  27   17   18 2
  28   17   26 1
  29   18   27 1

#	End of record

#	Name: 9551255
#	Creating user name:	landrgr1
#	Creation time:	28. 01. 2015 13:52

#	Modifying user name:	landrgr1
#	Modification time:	28. 01. 2015 13:52

#	Program:	corina 3.48 0006  22.01.2010

@<TRIPOS>MOLECULE
9551255
  65   68    0    0    0
SMALL
NO_CHARGES


@<TRIPOS>ATOM
   1 Cl1           -5.3944    15.4870     5.4588 Cl      
   2 F2             4.9554    -1.8672    -5.5743 F       
   3 O3            -4.2560     8.6010     3.7808 O.2     
   4 O4            -2.4797     5.5732     4.3710 O.2     
   5 N5            -0.0179     1.4653     0.0101 N.3     
   6 N6             2.0995     0.0476    -1.2596 N.3     
   7 N7            -2.3253     8.1495     4.8377 N.am    
   8 N8            -4.0588     9.0020     5.9828 N.am    
   9 N9            -1.1652     5.4647     2.5871 N.am    
  10 C10            0.0021    -0.0041     0.0020 C.3     
  11 C11            1.3479     2.0078    -0.0000 C.3     
  12 C12            0.7337    -0.4948    -1.2495 C.3     
  13 C13            2.0796     1.5170    -1.2516 C.3     
  14 C14           -0.7783     1.9752     1.1589 C.3     
  15 C15           -0.5713     3.4865     1.2773 C.3     
  16 C16            2.8233    -0.4377    -2.3531 C.ar    
  17 C17           -1.3634     4.0176     2.4738 C.3     
  18 C18           -1.8185     8.2598     6.2138 C.3     
  19 C19           -3.0081     8.8449     6.9995 C.3     
  20 C20           -1.5669     7.6410     3.6921 C.3     
  21 C21           -3.5923     8.5823     4.7994 C.2     
  22 C22           -5.4041     9.5281     6.2267 C.3     
  23 C23           -1.7707     6.1524     3.5755 C.2     
  24 C24            4.1411    -0.0436    -2.5449 C.ar    
  25 C25            2.2272    -1.3189    -3.2457 C.ar    
  26 C26           -5.4016    11.0228     6.0341 C.ar    
  27 C27            4.8542    -0.5242    -3.6258 C.ar    
  28 C28            2.9441    -1.7970    -4.3252 C.ar    
  29 C29            4.2561    -1.3983    -4.5177 C.ar    
  30 C30           -5.6684    11.5593     4.7883 C.ar    
  31 C31           -5.1380    11.8569     7.1045 C.ar    
  32 C32           -5.6662    12.9300     4.6110 C.ar    
  33 C33           -5.1364    13.2278     6.9287 C.ar    
  34 C34           -5.3973    13.7652     5.6807 C.ar    
  35 H35            0.5192    -0.3656     0.8908 H       
  36 H36           -1.0204    -0.3816    -0.0030 H       
  37 H37            1.3066     3.0970    -0.0066 H       
  38 H38            1.8803     1.6690     0.8887 H       
  39 H39            0.2013    -0.1561    -2.1383 H       
  40 H40            0.7751    -1.5840    -1.2430 H       
  41 H41            3.1021     1.8946    -1.2465 H       
  42 H42            1.5625     1.8786    -2.1404 H       
  43 H43           -1.8380     1.7637     1.0160 H       
  44 H44           -0.4303     1.4884     2.0699 H       
  45 H45            0.4883     3.6981     1.4202 H       
  46 H46           -0.9194     3.9734     0.3662 H       
  47 H47           -1.5493     7.2776     6.6023 H       
  48 H48           -0.9641     8.9355     6.2538 H       
  49 H49           -1.0153     3.5307     3.3848 H       
  50 H50           -2.4230     3.8060     2.3308 H       
  51 H51           -2.7411     9.8116     7.4264 H       
  52 H52           -3.3313     8.1568     7.7806 H       
  53 H53           -1.9149     8.1278     2.7810 H       
  54 H54           -0.5072     7.8525     3.8350 H       
  55 H55           -6.1047     9.0728     5.5268 H       
  56 H56           -5.7063     9.2939     7.2474 H       
  57 H57           -0.5982     5.9279     1.9508 H       
  58 H58            4.6079     0.6384    -1.8497 H       
  59 H59            1.2041    -1.6304    -3.0958 H       
  60 H60            5.8789    -0.2178    -3.7756 H       
  61 H61            2.4810    -2.4823    -5.0197 H       
  62 H62           -5.8783    10.9073     3.9533 H       
  63 H63           -4.9337    11.4373     8.0784 H       
  64 H64           -5.8739    13.3491     3.6375 H       
  65 H65           -4.9305    13.8794     7.7650 H       
@<TRIPOS>BOND
   1    1   34 1
   2    2   29 1
   3    3   21 2
   4    4   23 2
   5    5   10 1
   6    5   11 1
   7    5   14 1
   8    6   12 1
   9    6   13 1
  10    6   16 1
  11    7   18 1
  12    7   20 1
  13    7   21 am
  14    8   19 1
  15    8   21 am
  16    8   22 1
  17    9   17 1
  18    9   23 am
  19    9   57 1
  20   10   12 1
  21   10   35 1
  22   10   36 1
  23   11   13 1
  24   11   37 1
  25   11   38 1
  26   12   39 1
  27   12   40 1
  28   13   41 1
  29   13   42 1
  30   14   15 1
  31   14   43 1
  32   14   44 1
  33   15   17 1
  34   15   45 1
  35   15   46 1
  36   16   24 ar
  37   16   25 ar
  38   17   49 1
  39   17   50 1
  40   18   19 1
  41   18   47 1
  42   18   48 1
  43   19   51 1
  44   19   52 1
  45   20   23 1
  46   20   53 1
  47   20   54 1
  48   22   26 1
  49   22   55 1
  50   22   56 1
  51   24   27 ar
  52   24   58 1
  53   25   28 ar
  54   25   59 1
  55   26   30 ar
  56   26   31 ar
  57   27   29 ar
  58   27   60 1
  59   28   29 ar
  60   28   61 1
  61   30   32 ar
  62   30   62 1
  63   31   33 ar
  64   31   63 1
  65   32   34 ar
  66   32   64 1
  67   33   34 ar
  68   33   65 1

#	End of record

#	Name: 9551251
#	Creating user name:	landrgr1
#	Creation time:	28. 01. 2015 13:52

#	Modifying user name:	landrgr1
#	Modification time:	28. 01. 2015 13:52

#	Program:	corina 3.48 0006  22.01.2010

@<TRIPOS>MOLECULE
9551251
  46   48    0    0    0
SMALL
NO_CHARGES


@<TRIPOS>ATOM
   1 S1            -0.1127     1.8928    -0.0892 S.3     
   2 S2             1.8974     8.7685     1.6231 S.3     
   3 O3             1.9810    -2.6229    -0.5669 O.2     
   4 O4             1.0514     4.4268     0.0969 O.2     
   5 N5            -0.2278    -2.6510    -0.4897 N.am    
   6 N6             3.2396     4.0757    -0.0070 N.am    
   7 C7            -1.4320    -1.9831    -0.3896 C.ar    
   8 C8            -1.4434    -0.5833    -0.2646 C.ar    
   9 C9            -0.2256    -4.1103    -0.6197 C.3     
  10 C10           -0.1613     0.1382    -0.2432 C.2     
  11 C11            0.9418    -1.9902    -0.4760 C.2     
  12 C12            1.0029    -0.5972    -0.3476 C.2     
  13 C13           -2.6364    -2.6776    -0.4112 C.ar    
  14 C14           -2.6572     0.0981    -0.1637 C.ar    
  15 C15           -0.2734    -4.4904    -2.1010 C.3     
  16 C16           -3.8275    -1.9907    -0.3115 C.ar    
  17 C17           -3.8390    -0.6090    -0.1877 C.ar    
  18 C18            1.6768     2.1620    -0.1248 C.3     
  19 C19            1.9655     3.6361    -0.0036 C.2     
  20 C20            3.5057     5.4493     0.0080 C.ar    
  21 C21            2.6780     6.3090     0.7147 C.ar    
  22 C22            4.6029     5.9527    -0.6804 C.ar    
  23 C23            2.9459     7.6716     0.7275 C.ar    
  24 C24            4.8671     7.3087    -0.6660 C.ar    
  25 C25            4.0420     8.1690     0.0324 C.ar    
  26 C26            2.6568    10.3895     1.3297 C.3     
  27 H27            0.6817    -4.5137    -0.1701 H       
  28 H28           -1.0972    -4.5217    -0.1107 H       
  29 H29            1.9602    -0.0974    -0.3351 H       
  30 H30           -2.6388    -3.7533    -0.5072 H       
  31 H31           -2.6698     1.1737    -0.0672 H       
  32 H32           -0.2717    -5.5761    -2.1977 H       
  33 H33           -1.1807    -4.0870    -2.5505 H       
  34 H34            0.5983    -4.0790    -2.6100 H       
  35 H35           -4.7609    -2.5338    -0.3287 H       
  36 H36           -4.7800    -0.0848    -0.1099 H       
  37 H37            2.1407     1.6313     0.7067 H       
  38 H38            2.0817     1.7885    -1.0653 H       
  39 H39            3.9720     3.4399    -0.0198 H       
  40 H40            1.8268     5.9197     1.2536 H       
  41 H41            5.2501     5.2830    -1.2271 H       
  42 H42            5.7207     7.6970    -1.2017 H       
  43 H43            4.2511     9.2286     0.0413 H       
  44 H44            2.6655    10.5984     0.2599 H       
  45 H45            2.0820    11.1587     1.8454 H       
  46 H46            3.6792    10.3855     1.7074 H       
@<TRIPOS>BOND
   1    1   10 1
   2    1   18 1
   3    2   23 1
   4    2   26 1
   5    3   11 2
   6    4   19 2
   7    5    7 1
   8    5    9 1
   9    5   11 am
  10    6   19 am
  11    6   20 1
  12    6   39 1
  13    7    8 ar
  14    7   13 ar
  15    8   10 1
  16    8   14 ar
  17    9   15 1
  18    9   27 1
  19    9   28 1
  20   10   12 2
  21   11   12 1
  22   12   29 1
  23   13   16 ar
  24   13   30 1
  25   14   17 ar
  26   14   31 1
  27   15   32 1
  28   15   33 1
  29   15   34 1
  30   16   17 ar
  31   16   35 1
  32   17   36 1
  33   18   19 1
  34   18   37 1
  35   18   38 1
  36   20   21 ar
  37   20   22 ar
  38   21   23 ar
  39   21   40 1
  40   22   24 ar
  41   22   41 1
  42   23   25 ar
  43   24   25 ar
  44   24   42 1
  45   25   43 1
  46   26   44 1
  47   26   45 1
  48   26   46 1

#	End of record

#	Name: 9551221
#	Creating user name:	landrgr1
#	Creation time:	28. 01. 2015 13:52

#	Modifying user name:	landrgr1
#	Modification time:	28. 01. 2015 13:52

#	Program:	corina 3.48 0006  22.01.2010

@<TRIPOS>MOLECULE
9551221
  50   52    0    0    0
SMALL
NO_CHARGES


@<TRIPOS>ATOM
   1 S1            -0.1949     1.5292     0.1443 S.o2    
   2 S2            -0.7338     4.0300     1.9406 S.3     
   3 O3            -0.4254     0.1469     0.3794 O.2     
   4 O4             1.1034     2.1058     0.1106 O.2     
   5 O5             0.9607     1.6335    -3.1440 O.2     
   6 N6            -0.9002     1.8797    -1.3124 N.am    
   7 N7             1.0569     3.7423    -3.8263 N.am    
   8 C8            -0.5223     3.0967    -2.0352 C.3     
   9 C9             2.1007     3.4252    -4.8042 C.3     
  10 C10           -1.8554     1.0152    -1.8518 C.ar    
  11 C11            0.5514     2.7705    -3.0411 C.2     
  12 C12            2.0654     4.4353    -5.9220 C.ar    
  13 C13           -1.0947     2.4015     1.3829 C.2     
  14 C14            3.4691     3.4678    -4.1213 C.3     
  15 C15           -3.1425     1.4715    -2.1065 C.ar    
  16 C16           -1.5189    -0.3013    -2.1402 C.ar    
  17 C17           -3.7476    -0.6974    -2.9210 C.ar    
  18 C18           -4.0844     0.6142    -2.6404 C.ar    
  19 C19           -2.4657    -1.1534    -2.6740 C.ar    
  20 C20            2.2536     4.0266    -7.2290 C.ar    
  21 C21            1.8391     5.7697    -5.6408 C.ar    
  22 C22           -2.1543     1.9280     2.0404 C.2     
  23 C23            2.2213     4.9531    -8.2544 C.ar    
  24 C24            1.8068     6.6962    -6.6662 C.ar    
  25 C25           -2.6991     2.7962     2.9708 C.2     
  26 C26           -4.7784    -1.6303    -3.5026 C.3     
  27 C27            2.0003     6.2883    -7.9727 C.ar    
  28 C28           -2.0820     3.9747     3.0687 C.2     
  29 H29           -1.3942     3.4980    -2.5518 H       
  30 H30           -0.1459     3.8367    -1.3290 H       
  31 H31            1.9279     2.4283    -5.2097 H       
  32 H32            0.7295     4.6517    -3.7440 H       
  33 H33            3.6419     4.4647    -3.7157 H       
  34 H34            3.4947     2.7372    -3.3128 H       
  35 H35            4.2458     3.2319    -4.8488 H       
  36 H36           -3.4064     2.4955    -1.8870 H       
  37 H37           -0.5179    -0.6581    -1.9475 H       
  38 H38           -5.0852     0.9683    -2.8387 H       
  39 H39           -2.2047    -2.1770    -2.8984 H       
  40 H40            2.4263     2.9834    -7.4491 H       
  41 H41            1.6873     6.0883    -4.6201 H       
  42 H42           -2.5568     0.9421     1.8604 H       
  43 H43            2.3691     4.6339    -9.2755 H       
  44 H44            1.6297     7.7387    -6.4466 H       
  45 H45           -3.5590     2.5390     3.5715 H       
  46 H46           -4.7418    -1.5792    -4.5908 H       
  47 H47           -4.5690    -2.6500    -3.1795 H       
  48 H48           -5.7699    -1.3364    -3.1582 H       
  49 H49            1.9754     7.0123    -8.7738 H       
  50 H50           -2.3665     4.7726     3.7385 H       
@<TRIPOS>BOND
   1    1    3 2
   2    1    4 2
   3    1    6 am
   4    1   13 1
   5    2   13 1
   6    2   28 1
   7    5   11 2
   8    6    8 1
   9    6   10 1
  10    7    9 1
  11    7   11 am
  12    7   32 1
  13    8   11 1
  14    8   29 1
  15    8   30 1
  16    9   12 1
  17    9   14 1
  18    9   31 1
  19   10   15 ar
  20   10   16 ar
  21   12   20 ar
  22   12   21 ar
  23   13   22 2
  24   14   33 1
  25   14   34 1
  26   14   35 1
  27   15   18 ar
  28   15   36 1
  29   16   19 ar
  30   16   37 1
  31   17   18 ar
  32   17   19 ar
  33   17   26 1
  34   18   38 1
  35   19   39 1
  36   20   23 ar
  37   20   40 1
  38   21   24 ar
  39   21   41 1
  40   22   25 1
  41   22   42 1
  42   23   27 ar
  43   23   43 1
  44   24   27 ar
  45   24   44 1
  46   25   28 2
  47   25   45 1
  48   26   46 1
  49   26   47 1
  50   26   48 1
  51   27   49 1
  52   28   50 1

#	End of record

#	Name: 9551217
#	Creating user name:	landrgr1
#	Creation time:	28. 01. 2015 13:52

#	Modifying user name:	landrgr1
#	Modification time:	28. 01. 2015 13:52

#	Program:	corina 3.48 0006  22.01.2010

@<TRIPOS>MOLECULE
9551217
  53   56    0    0    0
SMALL
NO_CHARGES


@<TRIPOS>ATOM
   1 S1           -11.7740    -2.5831     2.5154 S.2     
   2 F2           -15.6161     1.4554     0.6250 F       
   3 O3            -2.9299    -3.2362     6.5266 O.3     
   4 O4            -3.7736    -2.9861    -0.3058 O.2     
   5 O5            -1.1850    -4.1428     5.4976 O.2     
   6 O6            -9.7526     0.7000    -0.4483 O.2     
   7 N7            -4.0443    -3.2834     1.8781 N.am    
   8 N8            -2.6461    -3.0679     4.2168 N.am    
   9 N9            -9.2406    -2.5572     1.7940 N.am    
  10 N10          -10.6066    -0.8448     0.9195 N.am    
  11 C11           -2.7986    -4.0549     1.9908 C.3     
  12 C12           -4.8128    -2.9970     3.0976 C.3     
  13 C13           -1.8775    -3.3543     2.9973 C.3     
  14 C14           -3.8918    -2.2964     4.1041 C.3     
  15 C15           -4.4714    -2.8415     0.6786 C.2     
  16 C16           -5.7907    -2.1800     0.5602 C.ar    
  17 C17           -2.2163    -3.5054     5.4170 C.2     
  18 C18           -6.8889    -2.6968     1.2435 C.ar    
  19 C19           -8.1218    -2.0742     1.1303 C.ar    
  20 C20           -8.2537    -0.9277     0.3278 C.ar    
  21 C21           -5.9281    -1.0399    -0.2372 C.ar    
  22 C22           -7.1509    -0.4165    -0.3527 C.ar    
  23 C23           -9.5832    -0.2932     0.2321 C.2     
  24 C24          -10.4290    -1.9413     1.6728 C.2     
  25 C25          -11.8785    -0.2609     0.8448 C.ar    
  26 C26           -2.4070    -3.7387     7.7845 C.3     
  27 C27          -12.7676    -0.6559    -0.1458 C.ar    
  28 C28          -12.2532     0.7092     1.7648 C.ar    
  29 C29           -3.3460    -3.3372     8.9238 C.3     
  30 C30          -14.0205    -0.0793    -0.2177 C.ar    
  31 C31          -13.5069     1.2834     1.6895 C.ar    
  32 C32          -14.3902     0.8922     0.6973 C.ar    
  33 H33           -3.0228    -5.0628     2.3401 H       
  34 H34           -2.3086    -4.1027     1.0183 H       
  35 H35           -5.6532    -2.3461     2.8561 H       
  36 H36           -5.1805    -3.9296     3.5258 H       
  37 H37           -1.5099    -2.4217     2.5692 H       
  38 H38           -1.0372    -4.0051     3.2388 H       
  39 H39           -4.3817    -2.2486     5.0766 H       
  40 H40           -3.6676    -1.2885     3.7548 H       
  41 H41           -6.7802    -3.5778     1.8586 H       
  42 H42           -5.0715    -0.6454    -0.7634 H       
  43 H43           -7.2544     0.4643    -0.9690 H       
  44 H44           -9.1651    -3.3499     2.3480 H       
  45 H45           -2.3342    -4.8253     7.7396 H       
  46 H46           -1.4185    -3.3153     7.9621 H       
  47 H47          -12.4795    -1.4132    -0.8598 H       
  48 H48          -11.5647     1.0142     2.5390 H       
  49 H49           -3.4188    -2.2505     8.9687 H       
  50 H50           -4.3346    -3.7605     8.7462 H       
  51 H51           -2.9536    -3.7144     9.8682 H       
  52 H52          -14.7122    -0.3860    -0.9883 H       
  53 H53          -13.7987     2.0380     2.4050 H       
@<TRIPOS>BOND
   1    1   24 2
   2    2   32 1
   3    3   17 1
   4    3   26 1
   5    4   15 2
   6    5   17 2
   7    6   23 2
   8    7   11 1
   9    7   12 1
  10    7   15 am
  11    8   13 1
  12    8   14 1
  13    8   17 am
  14    9   19 1
  15    9   24 am
  16    9   44 1
  17   10   23 am
  18   10   24 am
  19   10   25 1
  20   11   13 1
  21   11   33 1
  22   11   34 1
  23   12   14 1
  24   12   35 1
  25   12   36 1
  26   13   37 1
  27   13   38 1
  28   14   39 1
  29   14   40 1
  30   15   16 1
  31   16   18 ar
  32   16   21 ar
  33   18   19 ar
  34   18   41 1
  35   19   20 ar
  36   20   22 ar
  37   20   23 1
  38   21   22 ar
  39   21   42 1
  40   22   43 1
  41   25   27 ar
  42   25   28 ar
  43   26   29 1
  44   26   45 1
  45   26   46 1
  46   27   30 ar
  47   27   47 1
  48   28   31 ar
  49   28   48 1
  50   29   49 1
  51   29   50 1
  52   29   51 1
  53   30   32 ar
  54   30   52 1
  55   31   32 ar
  56   31   53 1

#	End of record

#	Name: 9551167
#	Creating user name:	landrgr1
#	Creation time:	28. 01. 2015 13:52

#	Modifying user name:	landrgr1
#	Modification time:	28. 01. 2015 13:52

#	Program:	corina 3.48 0006  22.01.2010

@<TRIPOS>MOLECULE
9551167
  52   54    0    0    0
SMALL
NO_CHARGES


@<TRIPOS>ATOM
   1 S1            -0.0172     1.4168     0.0098 S.o2    
   2 S2            -1.8206     0.7646     8.3547 S.3     
   3 O3            -3.8414     2.9883    -6.8938 O.2     
   4 O4             0.0021    -0.0041     0.0020 O.2     
   5 O5             1.1903     2.1659     0.0023 O.2     
   6 O6            -2.5185     2.7860     3.4323 O.2     
   7 N7            -2.5618     3.0626    -5.0830 N.am    
   8 N8            -1.1815     2.0536     5.0441 N.am    
   9 C9            -1.9977     4.3930    -5.3261 C.3     
  10 C10           -1.0534     4.6531    -4.1410 C.3     
  11 C11           -1.1592     3.4080    -3.2896 C.ar    
  12 C12           -2.0476     2.5338    -3.8950 C.ar    
  13 C13           -1.2154     4.4057    -6.6409 C.3     
  14 C14           -0.5419     3.0680    -2.1009 C.ar    
  15 C15           -0.8061     1.8490    -1.5052 C.ar    
  16 C16           -2.3090     1.3041    -3.2874 C.ar    
  17 C17           -3.4505     2.4420    -5.8840 C.2     
  18 C18           -1.6909     0.9693    -2.1018 C.ar    
  19 C19           -1.1394     2.0311     1.2958 C.3     
  20 C20           -3.9584     1.0694    -5.5248 C.3     
  21 C21           -0.5580     1.7125     2.6748 C.3     
  22 C22           -4.9478     0.5965    -6.5917 C.3     
  23 C23           -1.4903     2.2229     3.7431 C.2     
  24 C24           -2.0878     2.5497     6.0826 C.3     
  25 C25           -1.5151     2.2360     7.4408 C.2     
  26 C26           -0.6997     3.0320     8.1341 C.2     
  27 C27           -0.3013     2.5320     9.3619 C.2     
  28 C28           -0.7933     1.3299     9.6657 C.2     
  29 H29           -2.7901     5.1412    -5.3495 H       
  30 H30           -0.0305     4.7876    -4.4925 H       
  31 H31           -1.3812     5.5273    -3.5785 H       
  32 H32           -1.8823     4.1462    -7.4630 H       
  33 H33           -0.8022     5.4003    -6.8082 H       
  34 H34           -0.4043     3.6794    -6.5880 H       
  35 H35            0.1488     3.7562    -1.6364 H       
  36 H36           -2.9994     0.6129    -3.7478 H       
  37 H37           -1.8980     0.0165    -1.6372 H       
  38 H38           -1.2562     3.1098     1.1911 H       
  39 H39           -2.1111     1.5485     1.1909 H       
  40 H40           -3.1205     0.3741    -5.4726 H       
  41 H41           -4.4587     1.1088    -4.5572 H       
  42 H42           -0.4412     0.6339     2.7795 H       
  43 H43            0.4137     2.1951     2.7797 H       
  44 H44           -4.4476     0.5571    -7.5593 H       
  45 H45           -5.3152    -0.3964    -6.3319 H       
  46 H46           -5.7857     1.2917    -6.6439 H       
  47 H47           -0.3591     1.6033     5.2927 H       
  48 H48           -2.2046     3.6284     5.9780 H       
  49 H49           -3.0595     2.0672     5.9777 H       
  50 H50           -0.3746     3.9936     7.7653 H       
  51 H51            0.3581     3.0739    10.0236 H       
  52 H52           -0.5919     0.7870    10.5773 H       
@<TRIPOS>BOND
   1    1    4 2
   2    1    5 2
   3    1   15 1
   4    1   19 1
   5    2   25 1
   6    2   28 1
   7    3   17 2
   8    6   23 2
   9    7    9 1
  10    7   12 1
  11    7   17 am
  12    8   23 am
  13    8   24 1
  14    8   47 1
  15    9   10 1
  16    9   13 1
  17    9   29 1
  18   10   11 1
  19   10   30 1
  20   10   31 1
  21   11   12 ar
  22   11   14 ar
  23   12   16 ar
  24   13   32 1
  25   13   33 1
  26   13   34 1
  27   14   15 ar
  28   14   35 1
  29   15   18 ar
  30   16   18 ar
  31   16   36 1
  32   17   20 1
  33   18   37 1
  34   19   21 1
  35   19   38 1
  36   19   39 1
  37   20   22 1
  38   20   40 1
  39   20   41 1
  40   21   23 1
  41   21   42 1
  42   21   43 1
  43   22   44 1
  44   22   45 1
  45   22   46 1
  46   24   25 1
  47   24   48 1
  48   24   49 1
  49   25   26 2
  50   26   27 1
  51   26   50 1
  52   27   28 2
  53   27   51 1
  54   28   52 1

#	End of record

#	Name: 9551157
#	Creating user name:	landrgr1
#	Creation time:	28. 01. 2015 13:52

#	Modifying user name:	landrgr1
#	Modification time:	28. 01. 2015 13:52

#	Program:	corina 3.48 0006  22.01.2010

@<TRIPOS>MOLECULE
9551157
  45   48    0    0    0
SMALL
NO_CHARGES


@<TRIPOS>ATOM
   1 O1             0.3784     1.2967     0.2139 O.3     
   2 O2            -1.1046    -5.6929     0.8936 O.3     
   3 O3             1.1862     9.6964     0.0575 O.3     
   4 O4             2.7458     3.8996    -0.4293 O.2     
   5 N5            -0.2510    -1.0431     0.4695 N.ar    
   6 N6             0.5902     4.2001     0.0186 N.am    
   7 C7             1.9424    -0.2669    -0.0414 C.ar    
   8 C8             1.5686    -2.6176     0.1598 C.ar    
   9 C9             0.5739    -0.0392     0.2407 C.ar    
  10 C10            0.1653    -2.3109     0.4454 C.ar    
  11 C11            2.4533    -1.5593    -0.0846 C.ar    
  12 C12            2.5353     1.0575    -0.2369 C.2     
  13 C13            1.5264     1.9488    -0.0662 C.2     
  14 C14            1.9924    -3.9587     0.1388 C.ar    
  15 C15           -0.7177    -3.3756     0.6903 C.ar    
  16 C16           -0.2465    -4.6676     0.6561 C.ar    
  17 C17            1.0955    -4.9497     0.3828 C.ar    
  18 C18            1.6634     3.4071    -0.1711 C.2     
  19 C19            0.7412     5.5920     0.0282 C.ar    
  20 C20           -0.2747     6.4044    -0.4580 C.ar    
  21 C21            1.9047     6.1611     0.5294 C.ar    
  22 C22            1.0395     8.3446     0.0482 C.ar    
  23 C23           -0.1251     7.7771    -0.4477 C.ar    
  24 C24            2.0527     7.5339     0.5390 C.ar    
  25 C25            2.4110    10.2124     0.5824 C.3     
  26 C26           -0.5646    -7.0151     0.8461 C.3     
  27 C27            2.3928    11.7406     0.5110 C.3     
  28 H28            3.4961    -1.7410    -0.2992 H       
  29 H29            3.5662     1.2799    -0.4697 H       
  30 H30            3.0242    -4.1992    -0.0708 H       
  31 H31           -1.7583    -3.1814     0.9042 H       
  32 H32            1.4262    -5.9777     0.3651 H       
  33 H33           -0.2868     3.8065     0.1485 H       
  34 H34           -1.1813     5.9627    -0.8445 H       
  35 H35            2.6933     5.5301     0.9118 H       
  36 H36           -0.9150     8.4090    -0.8262 H       
  37 H37            2.9574     7.9767     0.9287 H       
  38 H38            2.5224     9.8985     1.6203 H       
  39 H39            3.2469     9.8312    -0.0041 H       
  40 H40           -0.1506    -7.2031    -0.1445 H       
  41 H41            0.2228    -7.1130     1.5935 H       
  42 H42           -1.3540    -7.7376     1.0532 H       
  43 H43            3.3271    12.1342     0.9113 H       
  44 H44            2.2815    12.0545    -0.5269 H       
  45 H45            1.5569    12.1218     1.0975 H       
@<TRIPOS>BOND
   1    1    9 1
   2    1   13 1
   3    2   16 1
   4    2   26 1
   5    3   22 1
   6    3   25 1
   7    4   18 2
   8    5    9 ar
   9    5   10 ar
  10    6   18 am
  11    6   19 1
  12    6   33 1
  13    7    9 ar
  14    7   11 ar
  15    7   12 1
  16    8   10 ar
  17    8   11 ar
  18    8   14 ar
  19   10   15 ar
  20   11   28 1
  21   12   13 2
  22   12   29 1
  23   13   18 1
  24   14   17 ar
  25   14   30 1
  26   15   16 ar
  27   15   31 1
  28   16   17 ar
  29   17   32 1
  30   19   20 ar
  31   19   21 ar
  32   20   23 ar
  33   20   34 1
  34   21   24 ar
  35   21   35 1
  36   22   23 ar
  37   22   24 ar
  38   23   36 1
  39   24   37 1
  40   25   27 1
  41   25   38 1
  42   25   39 1
  43   26   40 1
  44   26   41 1
  45   26   42 1
  46   27   43 1
  47   27   44 1
  48   27   45 1

#	End of record

#	Name: 9551081
#	Creating user name:	landrgr1
#	Creation time:	28. 01. 2015 13:52

#	Modifying user name:	landrgr1
#	Modification time:	28. 01. 2015 13:52

#	Program:	corina 3.48 0006  22.01.2010

@<TRIPOS>MOLECULE
9551081
  47   50    0    0    0
SMALL
NO_CHARGES


@<TRIPOS>ATOM
   1 S1            -0.0172     1.4168     0.0098 S.o2    
   2 S2            -0.7884     3.4422     2.2624 S.3     
   3 S3            -8.0468     3.0699    -4.4219 S.3     
   4 O4             0.0021    -0.0041     0.0020 O.2     
   5 O5             1.1617     2.2101     0.0028 O.2     
   6 O6            -4.5348     4.8101    -2.4028 O.2     
   7 O7           -12.0707     6.4332    -4.1833 O.3     
   8 N8            -0.9002     1.8797    -1.3124 N.am    
   9 N9            -5.4074     3.0991    -3.5131 N.am    
  10 N10           -6.8928     4.9101    -3.1546 N.2     
  11 C11           -3.0535     3.0078    -2.7585 C.3     
  12 C12           -2.0742     3.9057    -1.9991 C.3     
  13 C13           -3.2322     1.6841    -2.0036 C.3     
  14 C14           -0.7128     3.2090    -1.9097 C.3     
  15 C15           -1.8816     0.9668    -1.9142 C.3     
  16 C16           -4.3843     3.7046    -2.8780 C.2     
  17 C17           -0.9297     1.8941     1.4396 C.2     
  18 C18           -1.8338     1.1371     2.0630 C.2     
  19 C19           -6.6314     3.7400    -3.6230 C.2     
  20 C20           -2.4250     1.7252     3.1678 C.2     
  21 C21           -2.0010     2.9599     3.4417 C.2     
  22 C22           -8.9668     4.5238    -4.0417 C.ar    
  23 C23           -8.1347     5.4021    -3.3415 C.ar    
  24 C24          -10.2859     4.8733    -4.3217 C.ar    
  25 C25           -8.6625     6.6445    -2.9299 C.ar    
  26 C26          -10.7830     6.0938    -3.9085 C.ar    
  27 C27           -9.9625     6.9767    -3.2128 C.ar    
  28 C28          -12.5167     7.7112    -3.7253 C.3     
  29 H29           -2.6605     2.8026    -3.7543 H       
  30 H30           -1.9672     4.8542    -2.5254 H       
  31 H31           -2.4527     4.0879    -0.9933 H       
  32 H32           -3.6006     1.8858    -0.9977 H       
  33 H33           -3.9479     1.0562    -2.5344 H       
  34 H34           -0.0409     3.7984    -1.2859 H       
  35 H35           -0.2896     3.1043    -2.9087 H       
  36 H36           -1.5517     0.6830    -2.9136 H       
  37 H37           -1.9810     0.0764    -1.2934 H       
  38 H38           -5.2870     2.2149    -3.8932 H       
  39 H39           -2.0857     0.1408     1.7307 H       
  40 H40           -3.1731     1.2226     3.7629 H       
  41 H41           -2.3488     3.5700     4.2622 H       
  42 H42          -10.9212     4.1883    -4.8636 H       
  43 H43           -8.0378     7.3388    -2.3876 H       
  44 H44          -10.3536     7.9306    -2.8911 H       
  45 H45          -12.4261     7.7602    -2.6402 H       
  46 H46          -11.9051     8.4926    -4.1765 H       
  47 H47          -13.5589     7.8558    -4.0098 H       
@<TRIPOS>BOND
   1    1    4 2
   2    1    5 2
   3    1    8 am
   4    1   17 1
   5    2   17 1
   6    2   21 1
   7    3   19 1
   8    3   22 1
   9    6   16 2
  10    7   26 1
  11    7   28 1
  12    8   14 1
  13    8   15 1
  14    9   16 am
  15    9   19 1
  16    9   38 1
  17   10   19 2
  18   10   23 1
  19   11   12 1
  20   11   13 1
  21   11   16 1
  22   11   29 1
  23   12   14 1
  24   12   30 1
  25   12   31 1
  26   13   15 1
  27   13   32 1
  28   13   33 1
  29   14   34 1
  30   14   35 1
  31   15   36 1
  32   15   37 1
  33   17   18 2
  34   18   20 1
  35   18   39 1
  36   20   21 2
  37   20   40 1
  38   21   41 1
  39   22   23 ar
  40   22   24 ar
  41   23   25 ar
  42   24   26 ar
  43   24   42 1
  44   25   27 ar
  45   25   43 1
  46   26   27 ar
  47   27   44 1
  48   28   45 1
  49   28   46 1
  50   28   47 1

#	End of record

#	Name: 9551030
#	Creating user name:	landrgr1
#	Creation time:	28. 01. 2015 13:52

#	Modifying user name:	landrgr1
#	Modification time:	28. 01. 2015 13:52

#	Program:	corina 3.48 0006  22.01.2010

@<TRIPOS>MOLECULE
9551030
  45   45    0    0    0
SMALL
NO_CHARGES


@<TRIPOS>ATOM
   1 Cl1            0.0000     0.0000     0.0000 Cl      
   2 O2             6.0031     8.8674     7.1845 O.3     
   3 O3            10.2117     7.4066     7.1134 O.3     
   4 O4             8.4177     6.2799     6.4843 O.2     
   5 N5            13.0775     6.9134     7.0753 N.4     
   6 C6             8.1538     7.5153     8.4732 C.3     
   7 C7             6.7379     6.9324     8.4319 C.3     
   8 C8             8.0662     9.0440     8.4306 C.3     
   9 C9             8.8393     7.0849     9.7444 C.ar    
  10 C10            6.0225     7.4386     7.1766 C.3     
  11 C11            7.2995     9.4686     7.1753 C.3     
  12 C12            8.9371     7.0219     7.2841 C.2     
  13 C13           10.1346     7.4923    10.0033 C.ar    
  14 C14            8.1707     6.2874    10.6543 C.ar    
  15 C15           10.9048     6.8923     5.9457 C.3     
  16 C16           12.3346     7.4361     5.9208 C.3     
  17 C17           10.7634     7.0975    11.1693 C.ar    
  18 C18            8.7995     5.8926    11.8204 C.ar    
  19 C19           10.0967     6.2957    12.0767 C.ar    
  20 C20           13.2138     5.4560     6.9508 C.3     
  21 C21           14.4111     7.5279     7.1185 C.3     
  22 H22            6.7927     5.8441     8.4061 H       
  23 H23            6.1875     7.2495     9.3177 H       
  24 H24            7.5426     9.4037     9.3163 H       
  25 H25            9.0710     9.4658     8.4038 H       
  26 H26            5.0000     7.0612     7.1639 H       
  27 H27            6.5509     7.0871     6.2904 H       
  28 H28            7.8447     9.1436     6.2891 H       
  29 H29            7.1970    10.5537     7.1617 H       
  30 H30           10.6555     8.1188     9.2943 H       
  31 H31            7.1570     5.9730    10.4543 H       
  32 H32           10.9308     5.8035     5.9890 H       
  33 H33           10.3803     7.2077     5.0437 H       
  34 H34           12.3102     8.5248     5.9672 H       
  35 H35           12.8266     7.1226     5.0000 H       
  36 H36           12.5782     7.1332     7.9241 H       
  37 H37           11.7757     7.4152    11.3712 H       
  38 H38            8.2770     5.2698    12.5314 H       
  39 H39           13.7531     5.2185     6.0339 H       
  40 H40           13.7650     5.0681     7.8074 H       
  41 H41           12.2242     5.0000     6.9188 H       
  42 H42           14.3100     8.6093     7.2108 H       
  43 H43           14.9623     7.1400     7.9751 H       
  44 H44           14.9505     7.2904     6.2015 H       
  45 H45           10.5880     5.9869    12.9876 H       
@<TRIPOS>BOND
   1    2   10 1
   2    2   11 1
   3    3   12 1
   4    3   15 1
   5    4   12 2
   6    5   16 1
   7    5   20 1
   8    5   21 1
   9    5   36 1
  10    6    7 1
  11    6    8 1
  12    6    9 1
  13    6   12 1
  14    7   10 1
  15    7   22 1
  16    7   23 1
  17    8   11 1
  18    8   24 1
  19    8   25 1
  20    9   13 ar
  21    9   14 ar
  22   10   26 1
  23   10   27 1
  24   11   28 1
  25   11   29 1
  26   13   17 ar
  27   13   30 1
  28   14   18 ar
  29   14   31 1
  30   15   16 1
  31   15   32 1
  32   15   33 1
  33   16   34 1
  34   16   35 1
  35   17   19 ar
  36   17   37 1
  37   18   19 ar
  38   18   38 1
  39   19   45 1
  40   20   39 1
  41   20   40 1
  42   20   41 1
  43   21   42 1
  44   21   43 1
  45   21   44 1

#	End of record

#	Name: 9551027
#	Creating user name:	landrgr1
#	Creation time:	28. 01. 2015 13:52

#	Modifying user name:	landrgr1
#	Modification time:	28. 01. 2015 13:52

#	Program:	corina 3.48 0006  22.01.2010

@<TRIPOS>MOLECULE
9551027
  55   59    0    0    0
SMALL
NO_CHARGES


@<TRIPOS>ATOM
   1 O1            -3.2330     0.7547    -0.2628 O.2     
   2 O2            -7.4163     6.6636    -3.5532 O.2     
   3 N3            -1.1868     0.0144    -0.6953 N.am    
   4 N4            -2.7856     3.3318    -0.4550 N.pl3   
   5 N5            -5.4820     7.3149    -4.5770 N.am    
   6 C6             0.3036    -1.9586    -2.0686 C.3     
   7 C7            -1.1937    -2.1521    -1.8180 C.3     
   8 C8             0.5983    -0.4727    -2.2860 C.3     
   9 C9            -1.5984    -1.3888    -0.5529 C.3     
  10 C10            0.2139     0.3097    -1.0263 C.3     
  11 C11           -2.0784     1.0117    -0.5309 C.2     
  12 C12           -1.6407     2.4460    -0.6801 C.3     
  13 C13           -3.2103     3.7676     0.7841 C.ar    
  14 C14           -4.5541     4.6293    -0.8718 C.2     
  15 C15           -4.3279     4.5937     0.5867 C.ar    
  16 C16           -3.5704     3.8413    -1.4339 C.2     
  17 C17           -5.5722     5.3349    -1.5567 C.2     
  18 C18           -5.2641     6.0705    -2.6829 C.2     
  19 C19           -3.9177     6.3984    -3.2036 C.ar    
  20 C20           -2.7510     3.5406     2.0774 C.ar    
  21 C21           -4.9670     5.1772     1.6766 C.ar    
  22 C22           -4.1179     7.1607    -4.3628 C.ar    
  23 C23           -6.2005     6.6972    -3.6241 C.2     
  24 C24           -3.3928     4.1249     3.1480 C.ar    
  25 C25           -4.4973     4.9400     2.9506 C.ar    
  26 C26           -2.6298     6.1016    -2.7715 C.ar    
  27 C27           -3.0119     7.6149    -5.0723 C.ar    
  28 C28           -6.0630     8.0612    -5.6958 C.3     
  29 C29           -1.5439     6.5611    -3.4896 C.ar    
  30 C30           -1.7376     7.3147    -4.6350 C.ar    
  31 H31            0.8655    -2.3180    -1.2065 H       
  32 H32            0.5991    -2.5208    -2.9544 H       
  33 H33           -1.7574    -1.7703    -2.6692 H       
  34 H34           -1.4064    -3.2130    -1.6865 H       
  35 H35            1.6611    -0.3383    -2.4876 H       
  36 H36            0.0178    -0.1067    -3.1328 H       
  37 H37           -1.1039    -1.8286     0.3131 H       
  38 H38           -2.6796    -1.4412    -0.4247 H       
  39 H39            0.3286     1.3779    -1.2103 H       
  40 H40            0.8563     0.0083    -0.1988 H       
  41 H41           -1.2512     2.6042    -1.6858 H       
  42 H42           -0.8619     2.6660     0.0500 H       
  43 H43           -3.4474     3.6571    -2.4909 H       
  44 H44           -6.5902     5.2977    -1.1978 H       
  45 H45           -1.8923     2.9067     2.2425 H       
  46 H46           -5.8267     5.8131     1.5249 H       
  47 H47           -3.0326     3.9457     4.1503 H       
  48 H48           -4.9908     5.3916     3.7985 H       
  49 H49           -2.4796     5.5140    -1.8779 H       
  50 H50           -3.1501     8.2033    -5.9673 H       
  51 H51           -6.2149     7.3895    -6.5407 H       
  52 H52           -7.0202     8.4849    -5.3918 H       
  53 H53           -5.3863     8.8644    -5.9872 H       
  54 H54           -0.5420     6.3331    -3.1571 H       
  55 H55           -0.8833     7.6705    -5.1919 H       
@<TRIPOS>BOND
   1    1   11 2
   2    2   23 2
   3    3    9 1
   4    3   10 1
   5    3   11 am
   6    4   12 1
   7    4   13 1
   8    4   16 1
   9    5   22 1
  10    5   23 am
  11    5   28 1
  12    6    7 1
  13    6    8 1
  14    6   31 1
  15    6   32 1
  16    7    9 1
  17    7   33 1
  18    7   34 1
  19    8   10 1
  20    8   35 1
  21    8   36 1
  22    9   37 1
  23    9   38 1
  24   10   39 1
  25   10   40 1
  26   11   12 1
  27   12   41 1
  28   12   42 1
  29   13   15 ar
  30   13   20 ar
  31   14   15 1
  32   14   16 2
  33   14   17 1
  34   15   21 ar
  35   16   43 1
  36   17   18 2
  37   17   44 1
  38   18   19 1
  39   18   23 1
  40   19   22 ar
  41   19   26 ar
  42   20   24 ar
  43   20   45 1
  44   21   25 ar
  45   21   46 1
  46   22   27 ar
  47   24   25 ar
  48   24   47 1
  49   25   48 1
  50   26   29 ar
  51   26   49 1
  52   27   30 ar
  53   27   50 1
  54   28   51 1
  55   28   52 1
  56   28   53 1
  57   29   30 ar
  58   29   54 1
  59   30   55 1

#	End of record

#	Name: 9551022
#	Creating user name:	landrgr1
#	Creation time:	28. 01. 2015 13:52

#	Modifying user name:	landrgr1
#	Modification time:	28. 01. 2015 13:52

#	Program:	corina 3.48 0006  22.01.2010

@<TRIPOS>MOLECULE
9551022
  50   54    0    0    0
SMALL
NO_CHARGES


@<TRIPOS>ATOM
   1 O1            -0.0774     1.1989    -1.0562 O.3     
   2 O2            -4.1935    -0.4820     1.2830 O.2     
   3 N3            -2.2595    -0.3142     0.1634 N.am    
   4 N4            -2.4108    -4.3924    -0.2328 N.pl3   
   5 N5            -1.2184    -2.2561    -0.6741 N.2     
   6 N6            -3.6139    -4.6512     0.4358 N.2     
   7 C7            -3.2650    -2.4785     0.4981 C.2     
   8 C8            -2.1872    -3.0478    -0.2037 C.2     
   9 C9            -2.2313     1.0777     0.3124 C.ar    
  10 C10           -1.2449    -0.9520    -0.5036 C.2     
  11 C11           -3.2851    -1.0285     0.6825 C.2     
  12 C12           -2.8462     1.8909    -0.6302 C.ar    
  13 C13           -2.8170     3.2638    -0.4801 C.ar    
  14 C14           -1.5837    -5.3492    -0.8338 C.ar    
  15 C15           -4.1220    -3.5310     0.8713 C.2     
  16 C16           -1.5930     1.6477     1.4064 C.ar    
  17 C17           -2.1759     3.8283     0.6071 C.ar    
  18 C18           -0.1460    -0.1480    -1.0488 C.2     
  19 C19           -1.5674     3.0208     1.5507 C.ar    
  20 C20           -1.4512    -6.6097    -0.2661 C.ar    
  21 C21           -0.8985    -5.0415    -2.0020 C.ar    
  22 C22           -3.4841     4.1471    -1.5027 C.3     
  23 C23           -2.1456     5.3264     0.7675 C.3     
  24 C24            0.9865    -0.6321    -1.6383 C.2     
  25 C25            0.0511    -7.2396    -2.0211 C.ar    
  26 C26           -0.6346    -7.5511    -0.8613 C.ar    
  27 C27           -0.0835    -5.9874    -2.5922 C.ar    
  28 C28            1.7568     0.4826    -2.0095 C.2     
  29 C29            1.0693     1.5830    -1.6350 C.2     
  30 C30            0.9418    -8.2691    -2.6676 C.3     
  31 H31           -3.3465     1.4506    -1.4801 H       
  32 H32           -5.0457    -3.4283     1.4215 H       
  33 H33           -1.1177     1.0177     2.1436 H       
  34 H34           -1.0716     3.4646     2.4014 H       
  35 H35           -1.9859    -6.8534     0.6401 H       
  36 H36           -1.0033    -4.0637    -2.4485 H       
  37 H37           -4.5205     4.3201    -1.2126 H       
  38 H38           -2.9583     5.1003    -1.5577 H       
  39 H39           -3.4561     3.6599    -2.4773 H       
  40 H40           -3.0136     5.6479     1.3430 H       
  41 H41           -1.2347     5.6174     1.2907 H       
  42 H42           -2.1663     5.7975    -0.2152 H       
  43 H43            1.2410    -1.6707    -1.7895 H       
  44 H44           -0.5311    -8.5315    -0.4203 H       
  45 H45            0.4493    -5.7488    -3.5009 H       
  46 H46            2.7180     0.4632    -2.5014 H       
  47 H47            1.3904     2.6042    -1.7783 H       
  48 H48            0.3625    -8.8528    -3.3830 H       
  49 H49            1.7599    -7.7681    -3.1851 H       
  50 H50            1.3471    -8.9309    -1.9022 H       
@<TRIPOS>BOND
   1    1   18 1
   2    1   29 1
   3    2   11 2
   4    3    9 1
   5    3   10 1
   6    3   11 am
   7    4    6 1
   8    4    8 1
   9    4   14 1
  10    5    8 1
  11    5   10 2
  12    6   15 2
  13    7    8 2
  14    7   11 1
  15    7   15 1
  16    9   12 ar
  17    9   16 ar
  18   10   18 1
  19   12   13 ar
  20   12   31 1
  21   13   17 ar
  22   13   22 1
  23   14   20 ar
  24   14   21 ar
  25   15   32 1
  26   16   19 ar
  27   16   33 1
  28   17   19 ar
  29   17   23 1
  30   18   24 2
  31   19   34 1
  32   20   26 ar
  33   20   35 1
  34   21   27 ar
  35   21   36 1
  36   22   37 1
  37   22   38 1
  38   22   39 1
  39   23   40 1
  40   23   41 1
  41   23   42 1
  42   24   28 1
  43   24   43 1
  44   25   26 ar
  45   25   27 ar
  46   25   30 1
  47   26   44 1
  48   27   45 1
  49   28   29 2
  50   28   46 1
  51   29   47 1
  52   30   48 1
  53   30   49 1
  54   30   50 1

#	End of record

#	Name: 9550943
#	Creating user name:	landrgr1
#	Creation time:	28. 01. 2015 13:52

#	Modifying user name:	landrgr1
#	Modification time:	28. 01. 2015 13:52

#	Program:	corina 3.48 0006  22.01.2010

@<TRIPOS>MOLECULE
9550943
  30   32    0    0    0
SMALL
NO_CHARGES


@<TRIPOS>ATOM
   1 S1            -0.1763    -3.4745     1.4090 S.2     
   2 O2            -0.3939     1.4457    -0.1215 O.3     
   3 O3            -2.8963     1.6090     3.9926 O.2     
   4 N4            -1.6695    -1.1934     1.3738 N.am    
   5 N5            -2.4558    -1.0529     3.4193 N.pl3   
   6 N6            -1.6564    -2.2009     3.3144 N.am    
   7 C7            -2.4430    -0.4475     2.2107 C.2     
   8 C8            -1.3939    -0.8854    -0.0317 C.3     
   9 C9            -3.1142     0.7497     1.8746 C.2     
  10 C10           -1.1948    -2.2564     2.0493 C.2     
  11 C11           -0.2646     0.1089    -0.1158 C.2     
  12 C12           -3.3080     1.7623     2.8493 C.2     
  13 C13           -3.5926     0.9544     0.5696 C.2     
  14 C14            1.0439    -0.1919    -0.1985 C.2     
  15 C15           -3.9772     2.9410     2.4881 C.2     
  16 C16           -4.2384     2.1128     0.2552 C.2     
  17 C17            1.7434     1.0353    -0.2574 C.2     
  18 C18           -4.4326     3.1029     1.2129 C.2     
  19 C19            0.8206     2.0127    -0.2072 C.2     
  20 H20           -1.1133    -1.7991    -0.5556 H       
  21 H21           -2.2861    -0.4616    -0.4925 H       
  22 H22           -2.9249    -0.7478     4.2116 H       
  23 H23           -1.4741    -2.8402     4.0208 H       
  24 H24           -3.4485     0.1944    -0.1841 H       
  25 H25            1.4770    -1.1811    -0.2159 H       
  26 H26           -4.1321     3.7200     3.2199 H       
  27 H27           -4.6034     2.2641    -0.7499 H       
  28 H28            2.8134     1.1635    -0.3286 H       
  29 H29           -4.9470     4.0131     0.9420 H       
  30 H30            1.0221     3.0735    -0.2317 H       
@<TRIPOS>BOND
   1    1   10 2
   2    2   11 1
   3    2   19 1
   4    3   12 2
   5    4    7 1
   6    4    8 1
   7    4   10 am
   8    5    6 1
   9    5    7 1
  10    5   22 1
  11    6   10 am
  12    6   23 1
  13    7    9 2
  14    8   11 1
  15    8   20 1
  16    8   21 1
  17    9   12 1
  18    9   13 1
  19   11   14 2
  20   12   15 1
  21   13   16 2
  22   13   24 1
  23   14   17 1
  24   14   25 1
  25   15   18 2
  26   15   26 1
  27   16   18 1
  28   16   27 1
  29   17   19 2
  30   17   28 1
  31   18   29 1
  32   19   30 1

#	End of record

#	Name: 9550883
#	Creating user name:	landrgr1
#	Creation time:	28. 01. 2015 13:52

#	Modifying user name:	landrgr1
#	Modification time:	28. 01. 2015 13:52

#	Program:	corina 3.48 0006  22.01.2010

@<TRIPOS>MOLECULE
9550883
  47   50    0    0    0
SMALL
NO_CHARGES


@<TRIPOS>ATOM
   1 Cl1           -7.9087    -6.9737    -3.7063 Cl      
   2 Cl2           -6.6837    -7.2089    -6.5625 Cl      
   3 O3            -0.0175     1.4400     0.0100 O.3     
   4 O4            -2.0432    -2.0966    -1.5183 O.2     
   5 O5            -2.8138     1.6966     0.6425 O.2     
   6 O6            -5.4098    -2.7015    -1.8165 O.2     
   7 N7            -2.3962    -0.2196    -0.4258 N.am    
   8 N8            -3.6488    -0.8271    -2.3301 N.am    
   9 C9             0.0021    -0.0041     0.0020 C.3     
  10 C10            1.1520    -0.3885     0.9592 C.3     
  11 C11           -1.3278    -0.5576     0.5178 C.3     
  12 C12            2.0729     0.8522     0.9571 C.3     
  13 C13            1.3704     1.8394    -0.0011 C.3     
  14 C14           -2.6836    -1.0673    -1.4259 C.2     
  15 C15           -3.0768     0.9366    -0.2694 C.2     
  16 C16           -4.4049     0.3344    -2.2653 C.ar    
  17 C17           -4.1469     1.2528    -1.2323 C.ar    
  18 C18           -3.9042    -1.8006    -3.3946 C.3     
  19 C19           -5.4049     0.6024    -3.1869 C.ar    
  20 C20           -4.8940     2.4242    -1.1385 C.ar    
  21 C21           -4.9351    -2.7960    -2.9284 C.2     
  22 C22           -6.1391     1.7675    -3.0824 C.ar    
  23 C23           -5.8853     2.6737    -2.0648 C.ar    
  24 C24           -5.3657    -3.8821    -3.8221 C.ar    
  25 C25           -6.3223    -4.8077    -3.3926 C.ar    
  26 C26           -4.8244    -3.9906    -5.1077 C.ar    
  27 C27           -6.7216    -5.8233    -4.2364 C.ar    
  28 C28           -5.2324    -5.0102    -5.9401 C.ar    
  29 C29           -6.1763    -5.9275    -5.5069 C.ar    
  30 H30            0.2045    -0.3753    -1.0026 H       
  31 H31            0.7676    -0.5771     1.9616 H       
  32 H32            1.6861    -1.2612     0.5835 H       
  33 H33           -1.5506    -0.1200     1.4909 H       
  34 H34           -1.2574    -1.6411     0.6141 H       
  35 H35            2.1438     1.2770     1.9584 H       
  36 H36            3.0622     0.5929     0.5803 H       
  37 H37            1.7827     1.7510    -1.0063 H       
  38 H38            1.4741     2.8613     0.3638 H       
  39 H39           -4.2735    -1.2825    -4.2797 H       
  40 H40           -2.9792    -2.3229    -3.6389 H       
  41 H41           -5.6128    -0.0998    -3.9806 H       
  42 H42           -4.6990     3.1318    -0.3463 H       
  43 H43           -6.9180     1.9750    -3.8012 H       
  44 H44           -6.4676     3.5808    -1.9964 H       
  45 H45           -6.7471    -4.7277    -2.4028 H       
  46 H46           -4.0887    -3.2766    -5.4471 H       
  47 H47           -4.8151    -5.0947    -6.9327 H       
@<TRIPOS>BOND
   1    1   27 1
   2    2   29 1
   3    3    9 1
   4    3   13 1
   5    4   14 2
   6    5   15 2
   7    6   21 2
   8    7   11 1
   9    7   14 am
  10    7   15 am
  11    8   14 am
  12    8   16 1
  13    8   18 1
  14    9   10 1
  15    9   11 1
  16    9   30 1
  17   10   12 1
  18   10   31 1
  19   10   32 1
  20   11   33 1
  21   11   34 1
  22   12   13 1
  23   12   35 1
  24   12   36 1
  25   13   37 1
  26   13   38 1
  27   15   17 1
  28   16   17 ar
  29   16   19 ar
  30   17   20 ar
  31   18   21 1
  32   18   39 1
  33   18   40 1
  34   19   22 ar
  35   19   41 1
  36   20   23 ar
  37   20   42 1
  38   21   24 1
  39   22   23 ar
  40   22   43 1
  41   23   44 1
  42   24   25 ar
  43   24   26 ar
  44   25   27 ar
  45   25   45 1
  46   26   28 ar
  47   26   46 1
  48   27   29 ar
  49   28   29 ar
  50   28   47 1

#	End of record

#	Name: 9550815
#	Creating user name:	landrgr1
#	Creation time:	28. 01. 2015 13:52

#	Modifying user name:	landrgr1
#	Modification time:	28. 01. 2015 13:52

#	Program:	corina 3.48 0006  22.01.2010

@<TRIPOS>MOLECULE
9550815
  46   49    0    0    0
SMALL
NO_CHARGES


@<TRIPOS>ATOM
   1 S1            -0.3448     1.7100     0.6085 S.3     
   2 S2            -7.7266    -6.8519    -5.9602 S.3     
   3 O3            -2.7738    -4.5466    -2.6175 O.2     
   4 N4            -0.9386    -0.9010    -0.1631 N.3     
   5 N5            -2.6484    -2.8430    -1.1977 N.am    
   6 N6             1.1571     0.1012    -0.6105 N.2     
   7 N7            -4.5678    -3.2460    -2.4638 N.am    
   8 C8            -0.3638    -2.0696    -0.8428 C.3     
   9 C9            -2.1959    -0.4814    -0.7962 C.3     
  10 C10           -1.3238    -3.2567    -0.7104 C.3     
  11 C11           -3.2310    -1.6034    -0.6619 C.3     
  12 C12           -0.0345     0.1407    -0.1207 C.2     
  13 C13           -3.3106    -3.5801    -2.1113 C.2     
  14 C14            1.2747     2.2490     0.1715 C.ar    
  15 C15            1.9247     1.2031    -0.4909 C.ar    
  16 C16           -5.3141    -4.0980    -3.2900 C.ar    
  17 C17            1.9246     3.4622     0.3809 C.ar    
  18 C18            3.2463     1.4110    -0.9378 C.ar    
  19 C19            3.2158     3.6425    -0.0643 C.ar    
  20 C20            3.8717     2.6136    -0.7231 C.ar    
  21 C21           -6.2313    -3.5668    -4.1870 C.ar    
  22 C22           -5.1317    -5.4724    -3.2151 C.ar    
  23 C23           -6.9664    -4.4053    -5.0008 C.ar    
  24 C24           -5.8660    -6.3118    -4.0288 C.ar    
  25 C25           -6.7883    -5.7810    -4.9222 C.ar    
  26 C26           -7.1386    -8.5004    -5.4837 C.3     
  27 H27           -0.2134    -1.8394    -1.8975 H       
  28 H28            0.5927    -2.3225    -0.3853 H       
  29 H29           -2.5682     0.4176    -0.3050 H       
  30 H30           -2.0200    -0.2732    -1.8516 H       
  31 H31           -1.3951    -3.5550     0.3356 H       
  32 H32           -0.9581    -4.0917    -1.3080 H       
  33 H33           -4.1263    -1.3452    -1.2275 H       
  34 H34           -3.4857    -1.7427     0.3887 H       
  35 H35           -4.9563    -2.4160    -2.1458 H       
  36 H36            1.4149     4.2645     0.8935 H       
  37 H37            3.7696     0.6185    -1.4521 H       
  38 H38            3.7169     4.5852     0.0992 H       
  39 H39            4.8841     2.7597    -1.0697 H       
  40 H40           -6.3699    -2.4974    -4.2477 H       
  41 H41           -4.4150    -5.8849    -2.5204 H       
  42 H42           -7.6800    -3.9921    -5.6982 H       
  43 H43           -5.7238    -7.3808    -3.9707 H       
  44 H44           -6.0667    -8.5713    -5.6684 H       
  45 H45           -7.3365    -8.6646    -4.4244 H       
  46 H46           -7.6594    -9.2560    -6.0719 H       
@<TRIPOS>BOND
   1    1   12 1
   2    1   14 1
   3    2   25 1
   4    2   26 1
   5    3   13 2
   6    4    8 1
   7    4    9 1
   8    4   12 1
   9    5   10 1
  10    5   11 1
  11    5   13 am
  12    6   12 2
  13    6   15 1
  14    7   13 am
  15    7   16 1
  16    7   35 1
  17    8   10 1
  18    8   27 1
  19    8   28 1
  20    9   11 1
  21    9   29 1
  22    9   30 1
  23   10   31 1
  24   10   32 1
  25   11   33 1
  26   11   34 1
  27   14   15 ar
  28   14   17 ar
  29   15   18 ar
  30   16   21 ar
  31   16   22 ar
  32   17   19 ar
  33   17   36 1
  34   18   20 ar
  35   18   37 1
  36   19   20 ar
  37   19   38 1
  38   20   39 1
  39   21   23 ar
  40   21   40 1
  41   22   24 ar
  42   22   41 1
  43   23   25 ar
  44   23   42 1
  45   24   25 ar
  46   24   43 1
  47   26   44 1
  48   26   45 1
  49   26   46 1

#	End of record

#	Name: 9550733
#	Creating user name:	landrgr1
#	Creation time:	28. 01. 2015 13:52

#	Modifying user name:	landrgr1
#	Modification time:	28. 01. 2015 13:52

#	Program:	corina 3.48 0006  22.01.2010

@<TRIPOS>MOLECULE
9550733
  40   42    0    0    0
SMALL
NO_CHARGES


@<TRIPOS>ATOM
   1 Cl1            2.6699     3.2818    -0.0067 Cl      
   2 S2            -0.0218     1.7560     0.0117 S.3     
   3 O3             6.6885    -4.3672     2.4209 O.3     
   4 O4             2.2417    -2.5622     2.3098 O.2     
   5 O5             0.3849    -4.6456    -0.0268 O.3     
   6 O6            -1.7000    -3.8734    -0.0019 O.2     
   7 N7             3.9206    -3.8329     1.6109 N.am    
   8 N8             1.2776    -1.8392    -0.0196 N.pl3   
   9 C9             5.5445    -5.0570     2.9697 C.3     
  10 C10            5.9600    -5.4256     4.4112 C.3     
  11 C11            7.5040    -5.4552     4.3610 C.3     
  12 C12            4.3240    -4.1344     2.9867 C.3     
  13 C13            7.8386    -5.1009     2.8951 C.3     
  14 C14            2.4463    -2.7226    -0.0358 C.3     
  15 C15            1.3113    -0.4499    -0.0129 C.2     
  16 C16            2.8612    -3.0327     1.3793 C.2     
  17 C17           -0.0408    -2.2478    -0.0090 C.2     
  18 C18            0.0021    -0.0041     0.0020 C.2     
  19 C19           -0.8412    -1.1282     0.0044 C.2     
  20 C20            2.2430     0.5926    -0.0162 C.2     
  21 C21            1.7328     1.8204    -0.0047 C.2     
  22 C22           -0.5073    -3.6331    -0.0123 C.2     
  23 C23           -0.1414    -5.9741    -0.0292 C.3     
  24 H24            5.3323    -5.9578     2.3939 H       
  25 H25            5.6152    -4.6670     5.1139 H       
  26 H26            5.5679    -6.4057     4.6829 H       
  27 H27            7.9225    -4.7112     5.0388 H       
  28 H28            7.8752    -6.4498     4.6078 H       
  29 H29            4.5760    -3.2080     3.5027 H       
  30 H30            3.5027    -4.6280     3.5062 H       
  31 H31            7.9783    -6.0084     2.3077 H       
  32 H32            8.7316    -4.4774     2.8497 H       
  33 H33            4.4161    -4.2093     0.8667 H       
  34 H34            2.1943    -3.6490    -0.5519 H       
  35 H35            3.2676    -2.2290    -0.5554 H       
  36 H36           -1.9211    -1.1158     0.0149 H       
  37 H37            3.3077     0.4122    -0.0270 H       
  38 H38           -0.7442    -6.1277     0.8659 H       
  39 H39           -0.7616    -6.1176    -0.9139 H       
  40 H40            0.6802    -6.6903    -0.0413 H       
@<TRIPOS>BOND
   1    1   21 1
   2    2   18 1
   3    2   21 1
   4    3    9 1
   5    3   13 1
   6    4   16 2
   7    5   22 1
   8    5   23 1
   9    6   22 2
  10    7   12 1
  11    7   16 am
  12    7   33 1
  13    8   14 1
  14    8   15 1
  15    8   17 1
  16    9   10 1
  17    9   12 1
  18    9   24 1
  19   10   11 1
  20   10   25 1
  21   10   26 1
  22   11   13 1
  23   11   27 1
  24   11   28 1
  25   12   29 1
  26   12   30 1
  27   13   31 1
  28   13   32 1
  29   14   16 1
  30   14   34 1
  31   14   35 1
  32   15   18 2
  33   15   20 1
  34   17   19 2
  35   17   22 1
  36   18   19 1
  37   19   36 1
  38   20   21 2
  39   20   37 1
  40   23   38 1
  41   23   39 1
  42   23   40 1

#	End of record

#	Name: 9550721
#	Creating user name:	landrgr1
#	Creation time:	28. 01. 2015 13:52

#	Modifying user name:	landrgr1
#	Modification time:	28. 01. 2015 13:52

#	Program:	corina 3.48 0006  22.01.2010

@<TRIPOS>MOLECULE
9550721
  46   49    0    0    0
SMALL
NO_CHARGES


@<TRIPOS>ATOM
   1 Cl1            2.2455    -7.6460     3.4994 Cl      
   2 S2            -0.0217     1.7516     0.0117 S.3     
   3 O3             2.6464    -2.3372    -0.0353 O.2     
   4 O4            -0.5106    -4.0690     2.0116 O.2     
   5 N5             0.4553    -2.7178    -0.0181 N.am    
   6 N6            -0.8477    -2.2119    -0.0030 N.2     
   7 N7             0.1293    -6.1057     1.4084 N.am    
   8 C8             0.6712    -4.1668    -0.0288 C.3     
   9 C9             1.3014    -0.4759    -0.0129 C.2     
  10 C10            0.0021    -0.0041     0.0020 C.2     
  11 C11            2.3034     0.5995    -0.0167 C.ar    
  12 C12            1.5126    -1.8869    -0.0220 C.2     
  13 C13           -1.0728    -0.9320     0.0069 C.2     
  14 C14            1.7312     1.8659    -0.0044 C.ar    
  15 C15            0.0540    -4.7757     1.2038 C.2     
  16 C16            0.0213    -4.7700    -1.2757 C.3     
  17 C17            3.7080     0.4807    -0.0312 C.ar    
  18 C18            2.5546     2.9988    -0.0058 C.ar    
  19 C19           -2.4923    -0.4263     0.0231 C.3     
  20 C20           -0.4707    -6.6977     2.6066 C.3     
  21 C21            4.4990     1.6026    -0.0320 C.ar    
  22 C22            3.9230     2.8642    -0.0192 C.ar    
  23 C23           -0.2487    -8.1882     2.5956 C.ar    
  24 C24            0.9708    -8.7092     2.9910 C.ar    
  25 C25           -1.2647    -9.0353     2.1959 C.ar    
  26 C26            1.1738   -10.0775     2.9805 C.ar    
  27 C27           -1.0613   -10.4029     2.1862 C.ar    
  28 C28            0.1586   -10.9235     2.5751 C.ar    
  29 H29            1.7411    -4.3747    -0.0400 H       
  30 H30            0.1819    -5.8481    -1.2837 H       
  31 H31           -1.0486    -4.5621    -1.2646 H       
  32 H32            0.4678    -4.3295    -2.1673 H       
  33 H33            4.1642    -0.4981    -0.0405 H       
  34 H34            2.1122     3.9840     0.0034 H       
  35 H35            0.5809    -6.6710     0.7622 H       
  36 H36           -3.1794    -1.2724     0.0244 H       
  37 H37           -2.6538     0.1743     0.9182 H       
  38 H38           -2.6703     0.1851    -0.8616 H       
  39 H39           -0.0077    -6.2680     3.4949 H       
  40 H40           -1.5406    -6.4898     2.6178 H       
  41 H41            5.5743     1.5025    -0.0428 H       
  42 H42            4.5507     3.7431    -0.0202 H       
  43 H43           -2.2180    -8.6291     1.8916 H       
  44 H44            2.1255   -10.4846     3.2887 H       
  45 H45           -1.8559   -11.0646     1.8744 H       
  46 H46            0.3170   -11.9918     2.5670 H       
@<TRIPOS>BOND
   1    1   24 1
   2    2   10 1
   3    2   14 1
   4    3   12 2
   5    4   15 2
   6    5    6 1
   7    5    8 1
   8    5   12 am
   9    6   13 2
  10    7   15 am
  11    7   20 1
  12    7   35 1
  13    8   15 1
  14    8   16 1
  15    8   29 1
  16    9   10 2
  17    9   11 1
  18    9   12 1
  19   10   13 1
  20   11   14 ar
  21   11   17 ar
  22   13   19 1
  23   14   18 ar
  24   16   30 1
  25   16   31 1
  26   16   32 1
  27   17   21 ar
  28   17   33 1
  29   18   22 ar
  30   18   34 1
  31   19   36 1
  32   19   37 1
  33   19   38 1
  34   20   23 1
  35   20   39 1
  36   20   40 1
  37   21   22 ar
  38   21   41 1
  39   22   42 1
  40   23   24 ar
  41   23   25 ar
  42   24   26 ar
  43   25   27 ar
  44   25   43 1
  45   26   28 ar
  46   26   44 1
  47   27   28 ar
  48   27   45 1
  49   28   46 1

#	End of record

#	Name: 9550720
#	Creating user name:	landrgr1
#	Creation time:	28. 01. 2015 13:52

#	Modifying user name:	landrgr1
#	Modification time:	28. 01. 2015 13:52

#	Program:	corina 3.48 0006  22.01.2010

@<TRIPOS>MOLECULE
9550720
  42   44    0    0    0
SMALL
NO_CHARGES


@<TRIPOS>ATOM
   1 S1            -0.2998     1.2940     0.0544 S.o2    
   2 S2            -1.0706     5.4714     2.1653 S.3     
   3 O3            -0.3969    -0.1235     0.0362 O.2     
   4 O4             0.9643     1.9412     0.1053 O.2     
   5 O5            -2.5914     2.9205    -3.4021 O.2     
   6 N6            -1.2773     2.1075    -4.9941 N.am    
   7 N7            -0.7173     4.2189     1.3134 N.2     
   8 N8            -1.8004     4.7947     3.3607 N.2     
   9 C9            -1.3343     2.0197    -1.2471 C.3     
  10 C10           -0.7454     1.6772    -2.6170 C.3     
  11 C11           -1.0897     1.7645     1.5575 C.ar    
  12 C12           -1.1614     3.1320     1.9239 C.ar    
  13 C13           -1.6049     2.2801    -3.6982 C.2     
  14 C14           -1.6300     0.8196     2.3647 C.ar    
  15 C15           -1.8243     3.4845     3.1769 C.ar    
  16 C16           -2.1259     2.5836    -5.9996 C.ar    
  17 C17           -2.2621     1.1561     3.5618 C.ar    
  18 C18           -2.3669     2.4435     3.9716 C.ar    
  19 C19           -3.8041     3.5249    -7.9879 C.ar    
  20 C20           -4.7182     4.0376    -9.0708 C.3     
  21 C21           -2.8339     3.7634    -5.8118 C.ar    
  22 C22           -2.2576     1.8803    -7.1898 C.ar    
  23 C23           -3.6708     4.2306    -6.8062 C.ar    
  24 C24           -3.0961     2.3528    -8.1803 C.ar    
  25 C25           -3.9332     4.9586   -10.0071 C.3     
  26 H26           -2.3446     1.6169    -1.1749 H       
  27 H27           -1.3653     3.1024    -1.1252 H       
  28 H28            0.2649     2.0800    -2.6892 H       
  29 H29           -0.7144     0.5945    -2.7389 H       
  30 H30           -1.5690    -0.2189     2.0747 H       
  31 H31           -0.4533     1.6533    -5.2297 H       
  32 H32           -2.6794     0.3719     4.1760 H       
  33 H33           -2.8620     2.6760     4.9028 H       
  34 H34           -5.1166     3.1966    -9.6383 H       
  35 H35           -5.5401     4.5934    -8.6196 H       
  36 H36           -2.7305     4.3148    -4.8889 H       
  37 H37           -1.7047     0.9649    -7.3408 H       
  38 H38           -4.2248     5.1460    -6.6591 H       
  39 H39           -3.2026     1.8037    -9.1042 H       
  40 H40           -3.5348     5.7996    -9.4396 H       
  41 H41           -3.1113     4.4028   -10.4584 H       
  42 H42           -4.5943     5.3294   -10.7904 H       
@<TRIPOS>BOND
   1    1    3 2
   2    1    4 2
   3    1    9 1
   4    1   11 1
   5    2    7 1
   6    2    8 1
   7    5   13 2
   8    6   13 am
   9    6   16 1
  10    6   31 1
  11    7   12 2
  12    8   15 2
  13    9   10 1
  14    9   26 1
  15    9   27 1
  16   10   13 1
  17   10   28 1
  18   10   29 1
  19   11   12 ar
  20   11   14 ar
  21   12   15 ar
  22   14   17 ar
  23   14   30 1
  24   15   18 ar
  25   16   21 ar
  26   16   22 ar
  27   17   18 ar
  28   17   32 1
  29   18   33 1
  30   19   20 1
  31   19   23 ar
  32   19   24 ar
  33   20   25 1
  34   20   34 1
  35   20   35 1
  36   21   23 ar
  37   21   36 1
  38   22   24 ar
  39   22   37 1
  40   23   38 1
  41   24   39 1
  42   25   40 1
  43   25   41 1
  44   25   42 1

#	End of record

#	Name: 9550713
#	Creating user name:	landrgr1
#	Creation time:	28. 01. 2015 13:52

#	Modifying user name:	landrgr1
#	Modification time:	28. 01. 2015 13:52

#	Program:	corina 3.48 0006  22.01.2010

@<TRIPOS>MOLECULE
9550713
  67   70    0    0    0
SMALL
NO_CHARGES


@<TRIPOS>ATOM
   1 O1            -0.0173     1.4282     0.0099 O.3     
   2 O2            -4.2000     2.0700    -3.1093 O.2     
   3 O3            -2.6429    -1.9244    -0.2332 O.2     
   4 O4            -1.1363     5.3713     1.6283 O.3     
   5 N5            -4.7737     0.4779    -1.7137 N.am    
   6 N6            -2.0725    -0.0889    -1.2903 N.am    
   7 C7            -6.1695     0.6306    -2.1316 C.3     
   8 C8            -6.6388     2.0556    -1.8315 C.3     
   9 C9            -6.2846     0.3614    -3.6334 C.3     
  10 C10           -8.0965     2.2151    -2.2680 C.3     
  11 C11           -7.7423     0.5209    -4.0698 C.3     
  12 C12           -8.2116     1.9459    -3.7697 C.3     
  13 C13           -2.3946     1.1823    -1.9203 C.3     
  14 C14           -4.4536    -0.5252    -0.7075 C.3     
  15 C15           -3.8486     1.2616    -2.2763 C.2     
  16 C16           -0.6743    -0.5253    -1.2675 C.3     
  17 C17            0.0021    -0.0041     0.0020 C.3     
  18 C18           -2.9970    -0.8786    -0.7351 C.2     
  19 C19            1.4796    -0.4507     0.0295 C.3     
  20 C20           -2.0576     2.3030    -0.9708 C.ar    
  21 C21            2.1925     0.8037     0.6040 C.3     
  22 C22            1.3259     1.9371    -0.0002 C.3     
  23 C23           -1.4782     3.4632    -1.4504 C.ar    
  24 C24           -2.3335     2.1715     0.3777 C.ar    
  25 C25           -1.1687     4.4921    -0.5821 C.ar    
  26 C26           -2.0260     3.1975     1.2501 C.ar    
  27 C27           -1.4398     4.3606     0.7721 C.ar    
  28 C28           -1.4433     5.1664     3.0088 C.3     
  29 C29           -1.0334     6.4028     3.8115 C.3     
  30 C30           -1.3622     6.1834     5.2895 C.3     
  31 C31           -0.9523     7.4198     6.0922 C.3     
  32 H32           -6.7917    -0.0792    -1.5865 H       
  33 H33           -6.5568     2.2474    -0.7617 H       
  34 H34           -6.0165     2.7654    -2.3766 H       
  35 H35           -5.6624     1.0712    -4.1785 H       
  36 H36           -5.9503    -0.6538    -3.8472 H       
  37 H37           -8.7187     1.5053    -1.7229 H       
  38 H38           -8.4308     3.2303    -2.0542 H       
  39 H39           -7.8243     0.3291    -5.1397 H       
  40 H40           -8.3645    -0.1889    -3.5247 H       
  41 H41           -9.2501     2.0595    -4.0807 H       
  42 H42           -7.5894     2.6557    -4.3148 H       
  43 H43           -1.7990     1.2926    -2.8266 H       
  44 H44           -4.7077    -0.1358     0.2783 H       
  45 H45           -5.0422    -1.4226    -0.8982 H       
  46 H46           -0.6333    -1.6145    -1.2800 H       
  47 H47           -0.1566    -0.1323    -2.1426 H       
  48 H48           -0.5174    -0.3858     0.8810 H       
  49 H49            1.6133    -1.3088     0.6883 H       
  50 H50            1.8364    -0.6732    -0.9762 H       
  51 H51            2.1505     0.8151     1.6932 H       
  52 H52            3.2222     0.8662     0.2518 H       
  53 H53            1.6416     2.1514    -1.0212 H       
  54 H54            1.3950     2.8347     0.6143 H       
  55 H55           -1.2670     3.5650    -2.5046 H       
  56 H56           -2.7902     1.2661     0.7492 H       
  57 H57           -0.7158     5.3980    -0.9571 H       
  58 H58           -2.2421     3.0945     2.3032 H       
  59 H59           -2.5144     4.9985     3.1218 H       
  60 H60           -0.8985     4.2971     3.3771 H       
  61 H61            0.0376     6.5706     3.6985 H       
  62 H62           -1.5782     7.2721     3.4432 H       
  63 H63           -2.4332     6.0155     5.4025 H       
  64 H64           -0.8174     5.3141     5.6578 H       
  65 H65            0.1188     7.5876     5.9792 H       
  66 H66           -1.4971     8.2891     5.7239 H       
  67 H67           -1.1865     7.2634     7.1452 H       
@<TRIPOS>BOND
   1    1   17 1
   2    1   22 1
   3    2   15 2
   4    3   18 2
   5    4   27 1
   6    4   28 1
   7    5    7 1
   8    5   14 1
   9    5   15 am
  10    6   13 1
  11    6   16 1
  12    6   18 am
  13    7    8 1
  14    7    9 1
  15    7   32 1
  16    8   10 1
  17    8   33 1
  18    8   34 1
  19    9   11 1
  20    9   35 1
  21    9   36 1
  22   10   12 1
  23   10   37 1
  24   10   38 1
  25   11   12 1
  26   11   39 1
  27   11   40 1
  28   12   41 1
  29   12   42 1
  30   13   15 1
  31   13   20 1
  32   13   43 1
  33   14   18 1
  34   14   44 1
  35   14   45 1
  36   16   17 1
  37   16   46 1
  38   16   47 1
  39   17   19 1
  40   17   48 1
  41   19   21 1
  42   19   49 1
  43   19   50 1
  44   20   23 ar
  45   20   24 ar
  46   21   22 1
  47   21   51 1
  48   21   52 1
  49   22   53 1
  50   22   54 1
  51   23   25 ar
  52   23   55 1
  53   24   26 ar
  54   24   56 1
  55   25   27 ar
  56   25   57 1
  57   26   27 ar
  58   26   58 1
  59   28   29 1
  60   28   59 1
  61   28   60 1
  62   29   30 1
  63   29   61 1
  64   29   62 1
  65   30   31 1
  66   30   63 1
  67   30   64 1
  68   31   65 1
  69   31   66 1
  70   31   67 1

#	End of record

#	Name: 9550698
#	Creating user name:	landrgr1
#	Creation time:	28. 01. 2015 13:52

#	Modifying user name:	landrgr1
#	Modification time:	28. 01. 2015 13:52

#	Program:	corina 3.48 0006  22.01.2010

@<TRIPOS>MOLECULE
9550698
  39   41    0    0    0
SMALL
NO_CHARGES


@<TRIPOS>ATOM
   1 S1            -0.0218     1.7545     0.0117 S.3     
   2 O2             4.1258    -0.7401    -0.0352 O.2     
   3 N3             4.5335     1.4438    -0.0344 N.am    
   4 C4             0.5513    -2.7581    -0.6602 C.3     
   5 C5            -0.4547    -3.2013     0.3997 C.3     
   6 C6             1.6498    -1.9253    -0.0064 C.3     
   7 C7            -1.1078    -1.9792     1.0390 C.3     
   8 C8             1.2612    -0.4570    -0.0060 C.2     
   9 C9            -1.2378    -0.8730    -0.0072 C.3     
  10 C10            0.0021    -0.0041     0.0020 C.2     
  11 C11            2.2334     0.6219    -0.0133 C.2     
  12 C12            1.6769     1.8568    -0.0040 C.2     
  13 C13            3.6876     0.3946    -0.0283 C.2     
  14 C14            5.9809     1.2176    -0.0493 C.3     
  15 C15            6.6966     2.5438    -0.0534 C.ar    
  16 C16            7.0367     3.1494     1.1418 C.ar    
  17 C17            7.0179     3.1521    -1.2524 C.ar    
  18 C18            7.6931     4.3659     1.1380 C.ar    
  19 C19            7.6744     4.3686    -1.2563 C.ar    
  20 C20            8.0098     4.9767    -0.0610 C.ar    
  21 H21            0.9932    -3.6364    -1.1309 H       
  22 H22            0.0425    -2.1592    -1.4156 H       
  23 H23           -1.2220    -3.8200    -0.0656 H       
  24 H24            0.0593    -3.7802     1.1671 H       
  25 H25            1.7952    -2.2610     1.0204 H       
  26 H26            2.5791    -2.0531    -0.5615 H       
  27 H27           -2.0970    -2.2474     1.4102 H       
  28 H28           -0.4909    -1.6275     1.8660 H       
  29 H29           -1.3587    -1.3205    -0.9937 H       
  30 H30           -2.1104    -0.2607     0.2202 H       
  31 H31            2.2354     2.7812    -0.0067 H       
  32 H32            4.1841     2.3486    -0.0288 H       
  33 H33            6.2694     0.6518     0.8366 H       
  34 H34            6.2517     0.6558    -0.9433 H       
  35 H35            6.7893     2.6722     2.0785 H       
  36 H36            6.7564     2.6766    -2.1863 H       
  37 H37            7.9582     4.8394     2.0718 H       
  38 H38            7.9257     4.8436    -2.1930 H       
  39 H39            8.5224     5.9273    -0.0640 H       
@<TRIPOS>BOND
   1    1   10 1
   2    1   12 1
   3    2   13 2
   4    3   13 am
   5    3   14 1
   6    3   32 1
   7    4    5 1
   8    4    6 1
   9    4   21 1
  10    4   22 1
  11    5    7 1
  12    5   23 1
  13    5   24 1
  14    6    8 1
  15    6   25 1
  16    6   26 1
  17    7    9 1
  18    7   27 1
  19    7   28 1
  20    8   10 2
  21    8   11 1
  22    9   10 1
  23    9   29 1
  24    9   30 1
  25   11   12 2
  26   11   13 1
  27   12   31 1
  28   14   15 1
  29   14   33 1
  30   14   34 1
  31   15   16 ar
  32   15   17 ar
  33   16   18 ar
  34   16   35 1
  35   17   19 ar
  36   17   36 1
  37   18   20 ar
  38   18   37 1
  39   19   20 ar
  40   19   38 1
  41   20   39 1

#	End of record

#	Name: 9550644
#	Creating user name:	landrgr1
#	Creation time:	28. 01. 2015 13:52

#	Modifying user name:	landrgr1
#	Modification time:	28. 01. 2015 13:52

#	Program:	corina 3.48 0006  22.01.2010

@<TRIPOS>MOLECULE
9550644
  56   58    0    0    0
SMALL
NO_CHARGES


@<TRIPOS>ATOM
   1 S1             1.3649     0.4361    -2.7577 S.3     
   2 O2             3.5731    -3.7933    -1.7206 O.2     
   3 O3             0.2001    -4.6649     0.5198 O.2     
   4 N4            -0.6614   -10.2214     3.7347 N.3     
   5 N5             1.3538    -3.9375    -1.7204 N.am    
   6 N6             0.6286    -6.8402     0.4400 N.am    
   7 N7             0.1135    -3.3145    -1.8864 N.2     
   8 C8            -0.7188    -8.7932     3.3957 C.3     
   9 C9             0.0000    -8.5554     2.0661 C.3     
  10 C10            1.4110    -5.3618    -1.3823 C.3     
  11 C11           -0.0597    -7.0679     1.7130 C.3     
  12 C12            2.4382    -1.8547    -2.1980 C.2     
  13 C13            1.1979    -1.2650    -2.3561 C.2     
  14 C14            0.7196   -10.6436     4.0037 C.3     
  15 C15           -1.5369   -10.5276     4.8739 C.3     
  16 C16            2.4949    -3.2416    -1.8682 C.2     
  17 C17            0.7030    -5.5960    -0.0728 C.2     
  18 C18            3.5510    -0.9170    -2.4047 C.ar    
  19 C19            0.0287    -2.0528    -2.1865 C.2     
  20 C20            0.7284    -6.1752    -2.4838 C.3     
  21 C21            3.1198     0.3670    -2.7160 C.ar    
  22 C22            0.8041   -12.1706     3.9585 C.3     
  23 C23           -2.9939   -10.5441     4.4075 C.3     
  24 C24            4.9343    -1.1760    -2.3236 C.ar    
  25 C25           -1.3274    -1.4180    -2.3569 C.3     
  26 C26            4.0614     1.3785    -2.9434 C.ar    
  27 C27            5.8425    -0.1720    -2.5505 C.ar    
  28 C28            5.4070     1.1078    -2.8604 C.ar    
  29 H29           -1.7597    -8.4824     3.3066 H       
  30 H30           -0.2325    -8.2137     4.1804 H       
  31 H31            1.0410    -8.8662     2.1552 H       
  32 H32           -0.4863    -9.1349     1.2814 H       
  33 H33            2.4519    -5.6726    -1.2932 H       
  34 H34            0.4266    -6.4884     2.4977 H       
  35 H35           -1.1006    -6.7571     1.6239 H       
  36 H36            1.3825   -10.2205     3.2489 H       
  37 H37            1.0214   -10.2921     4.9904 H       
  38 H38           -1.2748   -11.5040     5.2814 H       
  39 H39           -1.4105    -9.7667     5.6441 H       
  40 H40            1.0307    -7.5849    -0.0339 H       
  41 H41           -0.3126    -5.8645    -2.5728 H       
  42 H42            1.2404    -6.0058    -3.4310 H       
  43 H43            0.7709    -7.2350    -2.2322 H       
  44 H44            1.8258   -12.4844     4.1726 H       
  45 H45            0.1303   -12.5940     4.7033 H       
  46 H46            0.5165   -12.5212     2.9673 H       
  47 H47           -3.2854    -9.5426     4.0908 H       
  48 H48           -3.0999   -11.2349     3.5710 H       
  49 H49           -3.6346   -10.8664     5.2283 H       
  50 H50            5.2814    -2.1699    -2.0825 H       
  51 H51           -2.1023    -2.1665    -2.1912 H       
  52 H52           -1.4432    -0.6092    -1.6355 H       
  53 H53           -1.4175    -1.0193    -3.3674 H       
  54 H54            3.7287     2.3769    -3.1858 H       
  55 H55            6.9005    -0.3793    -2.4864 H       
  56 H56            6.1264     1.8936    -3.0372 H       
@<TRIPOS>BOND
   1    1   13 1
   2    1   21 1
   3    2   16 2
   4    3   17 2
   5    4    8 1
   6    4   14 1
   7    4   15 1
   8    5    7 1
   9    5   10 1
  10    5   16 am
  11    6   11 1
  12    6   17 am
  13    6   40 1
  14    7   19 2
  15    8    9 1
  16    8   29 1
  17    8   30 1
  18    9   11 1
  19    9   31 1
  20    9   32 1
  21   10   17 1
  22   10   20 1
  23   10   33 1
  24   11   34 1
  25   11   35 1
  26   12   13 2
  27   12   16 1
  28   12   18 1
  29   13   19 1
  30   14   22 1
  31   14   36 1
  32   14   37 1
  33   15   23 1
  34   15   38 1
  35   15   39 1
  36   18   21 ar
  37   18   24 ar
  38   19   25 1
  39   20   41 1
  40   20   42 1
  41   20   43 1
  42   21   26 ar
  43   22   44 1
  44   22   45 1
  45   22   46 1
  46   23   47 1
  47   23   48 1
  48   23   49 1
  49   24   27 ar
  50   24   50 1
  51   25   51 1
  52   25   52 1
  53   25   53 1
  54   26   28 ar
  55   26   54 1
  56   27   28 ar
  57   27   55 1
  58   28   56 1

#	End of record

#	Name: 9550597
#	Creating user name:	landrgr1
#	Creation time:	28. 01. 2015 13:52

#	Modifying user name:	landrgr1
#	Modification time:	28. 01. 2015 13:52

#	Program:	corina 3.48 0006  22.01.2010

@<TRIPOS>MOLECULE
9550597
  39   41    0    0    0
SMALL
NO_CHARGES


@<TRIPOS>ATOM
   1 Cl1            4.6025    -4.0984    -0.0639 Cl      
   2 O2            -0.0144     1.2138     0.0087 O.3     
   3 O3             2.2045     1.1934    -0.0126 O.2     
   4 N4             0.0021    -0.0041     0.0020 N.2     
   5 N5            -2.3090     0.0058     0.0241 N.pl3   
   6 C6             2.5092     5.3591     0.0064 C.ar    
   7 C7             1.2989     6.0985     0.0215 C.ar    
   8 C8             2.4623     3.9570    -0.0002 C.ar    
   9 C9             1.2338     3.3166     0.0081 C.ar    
  10 C10            0.0670     5.4184     0.0296 C.ar    
  11 C11           -1.0882    -2.1725     0.0008 C.3     
  12 C12            0.3393    -2.6554    -0.0154 C.ar    
  13 C13            3.7366     6.0453     0.0042 C.ar    
  14 C14            0.0403     4.0616     0.0230 C.ar    
  15 C15            1.3514     7.5019     0.0285 C.ar    
  16 C16            3.7474     7.4065     0.0166 C.ar    
  17 C17            2.5583     8.1325     0.0209 C.ar    
  18 C18            1.0051    -2.8833     1.1744 C.ar    
  19 C19            0.9804    -2.8759    -1.2202 C.ar    
  20 C20           -1.1086    -0.6656     0.0091 C.2     
  21 C21            1.1765     1.8412     0.0007 C.2     
  22 C22            2.3143    -3.3262     1.1602 C.ar    
  23 C23            2.2893    -3.3197    -1.2357 C.ar    
  24 C24            2.9582    -3.5420    -0.0452 C.ar    
  25 H25            3.3762     3.3816    -0.0120 H       
  26 H26           -0.8576     5.9764     0.0414 H       
  27 H27           -1.6055    -2.5380    -0.8863 H       
  28 H28           -1.5885    -2.5475     0.8936 H       
  29 H29            4.6660     5.4953    -0.0068 H       
  30 H30           -0.9092     3.5471     0.0293 H       
  31 H31            0.4383     8.0786     0.0396 H       
  32 H32            4.6914     7.9312     0.0152 H       
  33 H33            2.5944     9.2119     0.0263 H       
  34 H34            0.5024    -2.7148     2.1153 H       
  35 H35            0.4584    -2.7016    -2.1494 H       
  36 H36            2.8347    -3.5035     2.0898 H       
  37 H37            2.7901    -3.4919    -2.1769 H       
  38 H38           -2.3221     0.9757     0.0295 H       
  39 H39           -3.1423    -0.4906     0.0294 H       
@<TRIPOS>BOND
   1    1   24 1
   2    2    4 1
   3    2   21 1
   4    3   21 2
   5    4   20 2
   6    5   20 1
   7    5   38 1
   8    5   39 1
   9    6    7 ar
  10    6    8 ar
  11    6   13 ar
  12    7   10 ar
  13    7   15 ar
  14    8    9 ar
  15    8   25 1
  16    9   14 ar
  17    9   21 1
  18   10   14 ar
  19   10   26 1
  20   11   12 1
  21   11   20 1
  22   11   27 1
  23   11   28 1
  24   12   18 ar
  25   12   19 ar
  26   13   16 ar
  27   13   29 1
  28   14   30 1
  29   15   17 ar
  30   15   31 1
  31   16   17 ar
  32   16   32 1
  33   17   33 1
  34   18   22 ar
  35   18   34 1
  36   19   23 ar
  37   19   35 1
  38   22   24 ar
  39   22   36 1
  40   23   24 ar
  41   23   37 1

#	End of record

#	Name: 9550591
#	Creating user name:	landrgr1
#	Creation time:	28. 01. 2015 13:52

#	Modifying user name:	landrgr1
#	Modification time:	28. 01. 2015 13:52

#	Program:	corina 3.48 0006  22.01.2010

@<TRIPOS>MOLECULE
9550591
  56   58    0    0    0
SMALL
NO_CHARGES


@<TRIPOS>ATOM
   1 S1             0.0069     1.8543    -0.1372 S.3     
   2 O2             6.0196     7.5275    -0.1472 O.3     
   3 O3             4.4535     2.7099    -0.1676 O.2     
   4 N4             2.5997     1.0429    -0.1294 N.pl3   
   5 N5             4.1971     4.8431     0.4018 N.am    
   6 N6             0.6564     5.3648     0.5479 N.1     
   7 C7             3.0580     0.4058     1.0279 C.ar    
   8 C8             4.4657    -1.2237     2.0832 C.ar    
   9 C9            -1.4762    -0.4163    -0.2409 C.ar    
  10 C10            3.9648    -0.8548     3.3180 C.ar    
  11 C11           -0.0425     0.0481    -0.2445 C.3     
  12 C12            4.0152    -0.5964     0.9380 C.ar    
  13 C13           -2.1600    -0.5576    -1.4341 C.ar    
  14 C14            1.7475     2.1070    -0.0319 C.2     
  15 C15            2.5610     0.7780     2.2706 C.ar    
  16 C16            3.0156     0.1468     3.4115 C.ar    
  17 C17           -2.1057    -0.7063     0.9549 C.ar    
  18 C18            5.5001    -2.3153     1.9861 C.3     
  19 C19            4.4586    -1.5415     4.5653 C.3     
  20 C20           -3.4749    -0.9835    -1.4308 C.ar    
  21 C21            2.2569     3.3961     0.1515 C.2     
  22 C22           -1.4719    -0.2469    -2.7383 C.3     
  23 C23           -3.4209    -1.1323     0.9582 C.ar    
  24 C24           -4.1062    -1.2686    -0.2343 C.ar    
  25 C25            5.6440     5.0707     0.3678 C.3     
  26 C26            3.7000     3.6231     0.1175 C.2     
  27 C27            5.9351     6.5065     0.7212 C.2     
  28 C28            6.1548     6.9827     1.9599 C.2     
  29 C29            1.3644     4.4939     0.3725 C.1     
  30 C30            6.3851     8.3716     1.8299 C.2     
  31 C31            6.2923     8.6610     0.5196 C.2     
  32 H32            0.4416    -0.2745    -1.1662 H       
  33 H33            0.4806    -0.3810     0.6101 H       
  34 H34            4.4066    -0.8852    -0.0262 H       
  35 H35            2.8866     0.7296    -1.0014 H       
  36 H36            1.8201     1.5603     2.3444 H       
  37 H37            2.6261     0.4323     4.3775 H       
  38 H38           -1.5700    -0.6004     1.8867 H       
  39 H39            5.0025    -3.2780     1.8686 H       
  40 H40            6.1430    -2.1311     1.1254 H       
  41 H41            6.1030    -2.3263     2.8941 H       
  42 H42            5.3220    -1.0045     4.9581 H       
  43 H43            3.6656    -1.5509     5.3131 H       
  44 H44            4.7454    -2.5657     4.3269 H       
  45 H45           -4.0093    -1.0932    -2.3629 H       
  46 H46           -0.9898    -1.1476    -3.1184 H       
  47 H47           -2.2070     0.1048    -3.4622 H       
  48 H48           -0.7212     0.5268    -2.5777 H       
  49 H49           -3.9127    -1.3593     1.8926 H       
  50 H50           -5.1338    -1.6010    -0.2317 H       
  51 H51            6.1322     4.4133     1.0871 H       
  52 H52            6.0216     4.8590    -0.6326 H       
  53 H53            3.5970     5.5705     0.6290 H       
  54 H54            6.1547     6.4134     2.8777 H       
  55 H55            6.5949     9.0668     2.6293 H       
  56 H56            6.4161     9.6390     0.0785 H       
@<TRIPOS>BOND
   1    1   11 1
   2    1   14 1
   3    2   27 1
   4    2   31 1
   5    3   26 2
   6    4    7 1
   7    4   14 1
   8    4   35 1
   9    5   25 1
  10    5   26 am
  11    5   53 1
  12    6   29 3
  13    7   12 ar
  14    7   15 ar
  15    8   10 ar
  16    8   12 ar
  17    8   18 1
  18    9   11 1
  19    9   13 ar
  20    9   17 ar
  21   10   16 ar
  22   10   19 1
  23   11   32 1
  24   11   33 1
  25   12   34 1
  26   13   20 ar
  27   13   22 1
  28   14   21 2
  29   15   16 ar
  30   15   36 1
  31   16   37 1
  32   17   23 ar
  33   17   38 1
  34   18   39 1
  35   18   40 1
  36   18   41 1
  37   19   42 1
  38   19   43 1
  39   19   44 1
  40   20   24 ar
  41   20   45 1
  42   21   26 1
  43   21   29 1
  44   22   46 1
  45   22   47 1
  46   22   48 1
  47   23   24 ar
  48   23   49 1
  49   24   50 1
  50   25   27 1
  51   25   51 1
  52   25   52 1
  53   27   28 2
  54   28   30 1
  55   28   54 1
  56   30   31 2
  57   30   55 1
  58   31   56 1

#	End of record

#	Name: 9550578
#	Creating user name:	landrgr1
#	Creation time:	28. 01. 2015 13:52

#	Modifying user name:	landrgr1
#	Modification time:	28. 01. 2015 13:52

#	Program:	corina 3.48 0006  22.01.2010

@<TRIPOS>MOLECULE
9550578
  40   41    0    0    0
SMALL
NO_CHARGES


@<TRIPOS>ATOM
   1 Cl1           -2.2256    -3.1386     3.5820 Cl      
   2 O2            -0.7359     1.0261    -1.3960 O.3     
   3 O3             0.2183    -0.9437    -1.7742 O.2     
   4 O4            -2.3578    -0.6384    -3.9280 O.2     
   5 N5            -3.5121    -2.0820     0.1901 N.pl3   
   6 C6            -2.3071    -1.4645     0.2393 C.2     
   7 C7            -4.0007    -2.0796    -1.0656 C.2     
   8 C8            -4.1892    -2.6772     1.3448 C.3     
   9 C9            -1.9817    -1.0385    -1.0148 C.2     
  10 C10           -3.1063    -1.4463    -1.8841 C.2     
  11 C11           -3.7126    -4.0946     1.5310 C.ar    
  12 C12           -1.4655    -1.2791     1.4755 C.3     
  13 C13           -5.3156    -2.6761    -1.4970 C.3     
  14 C14           -0.7638    -0.3215    -1.4191 C.2     
  15 C15           -3.2357    -1.2191    -3.3240 C.2     
  16 C16           -2.8098    -4.3948     2.5359 C.ar    
  17 C17           -4.1812    -5.0959     0.7019 C.ar    
  18 C18           -2.3727    -5.6961     2.7061 C.ar    
  19 C19           -3.7443    -6.3965     0.8728 C.ar    
  20 C20           -2.8379    -6.6959     1.8725 C.ar    
  21 C21            0.5000     1.6670    -1.8084 C.3     
  22 C22            0.3420     3.1861    -1.7168 C.3     
  23 H23           -3.9611    -2.0968     2.2388 H       
  24 H24           -5.2660    -2.6753     1.1753 H       
  25 H25           -0.7732    -2.1154     1.5726 H       
  26 H26           -0.9027    -0.3490     1.3958 H       
  27 H27           -2.1117    -1.2387     2.3524 H       
  28 H28           -6.0797    -1.8989    -1.5120 H       
  29 H29           -5.2113    -3.1024    -2.4947 H       
  30 H30           -5.6070    -3.4585    -0.7962 H       
  31 H31           -4.1125    -1.5683    -3.8491 H       
  32 H32           -4.8892    -4.8625    -0.0796 H       
  33 H33           -1.6679    -5.9309     3.4900 H       
  34 H34           -4.1114    -7.1788     0.2251 H       
  35 H35           -2.4967    -7.7119     2.0053 H       
  36 H36            1.3113     1.3461    -1.1550 H       
  37 H37            0.7291     1.3869    -2.8365 H       
  38 H38           -0.4693     3.5070    -2.3702 H       
  39 H39            0.1129     3.4662    -0.6886 H       
  40 H40            1.2698     3.6672    -2.0263 H       
@<TRIPOS>BOND
   1    1   16 1
   2    2   14 1
   3    2   21 1
   4    3   14 2
   5    4   15 2
   6    5    6 1
   7    5    7 1
   8    5    8 1
   9    6    9 2
  10    6   12 1
  11    7   10 2
  12    7   13 1
  13    8   11 1
  14    8   23 1
  15    8   24 1
  16    9   10 1
  17    9   14 1
  18   10   15 1
  19   11   16 ar
  20   11   17 ar
  21   12   25 1
  22   12   26 1
  23   12   27 1
  24   13   28 1
  25   13   29 1
  26   13   30 1
  27   15   31 1
  28   16   18 ar
  29   17   19 ar
  30   17   32 1
  31   18   20 ar
  32   18   33 1
  33   19   20 ar
  34   19   34 1
  35   20   35 1
  36   21   22 1
  37   21   36 1
  38   21   37 1
  39   22   38 1
  40   22   39 1
  41   22   40 1

#	End of record

#	Name: 9550569
#	Creating user name:	landrgr1
#	Creation time:	28. 01. 2015 13:52

#	Modifying user name:	landrgr1
#	Modification time:	28. 01. 2015 13:52

#	Program:	corina 3.48 0006  22.01.2010

@<TRIPOS>MOLECULE
9550569
  40   43    0    0    0
SMALL
NO_CHARGES


@<TRIPOS>ATOM
   1 O1            -2.2817    -2.6597    -1.0820 O.2     
   2 O2            -1.0626     3.0821     0.9590 O.2     
   3 N3            -0.0166     1.3693     0.0096 N.am    
   4 N4            -0.0977    -2.4705    -1.5387 N.am    
   5 N5             1.0331    -0.4691    -0.9979 N.2     
   6 N6            -4.5037     2.3212     1.4995 N.1     
   7 C7            -0.0589     0.0946    -0.5003 C.2     
   8 C8            -1.2709    -0.6340    -0.5013 C.2     
   9 C9             1.0328    -1.7027    -1.5011 C.2     
  10 C10           -1.2661    -1.9881    -1.0557 C.2     
  11 C11            1.1923     2.0761     0.0018 C.ar    
  12 C12            2.2379    -2.2251    -2.0094 C.2     
  13 C13           -2.4416    -0.0683     0.0170 C.2     
  14 C14           -1.1221     1.9507     0.5116 C.2     
  15 C15           -2.3925     1.2240     0.5334 C.2     
  16 C16           -0.0652    -3.7296    -2.0595 C.2     
  17 C17            2.2600    -3.4842    -2.5299 C.2     
  18 C18            1.5262     2.8716    -1.0863 C.ar    
  19 C19            2.0570     1.9875     1.0848 C.ar    
  20 C20            1.0838    -4.2463    -2.5498 C.2     
  21 C21            3.4959    -1.3961    -1.9781 C.3     
  22 C22            3.5803     3.4735    -0.0131 C.ar    
  23 C23            2.7189     3.5679    -1.0907 C.ar    
  24 C24            3.2483     2.6863     1.0743 C.ar    
  25 C25            4.8810     4.2345    -0.0212 C.3     
  26 C26           -3.5698     1.8359     1.0722 C.1     
  27 H27           -3.3674    -0.6245     0.0160 H       
  28 H28           -0.9682    -4.3217    -2.0806 H       
  29 H29            3.1792    -3.8936    -2.9223 H       
  30 H30            0.8540     2.9454    -1.9285 H       
  31 H31            1.7981     1.3732     1.9345 H       
  32 H32            1.0950    -5.2458    -2.9588 H       
  33 H33            4.0261    -1.5754    -1.0428 H       
  34 H34            4.1346    -1.6732    -2.8167 H       
  35 H35            3.2369    -0.3399    -2.0522 H       
  36 H36            2.9793     4.1864    -1.9369 H       
  37 H37            3.9212     2.6178     1.9163 H       
  38 H38            4.7283     5.2196     0.4198 H       
  39 H39            5.6251     3.6884     0.5585 H       
  40 H40            5.2302     4.3461    -1.0477 H       
@<TRIPOS>BOND
   1    1   10 2
   2    2   14 2
   3    3    7 1
   4    3   11 1
   5    3   14 am
   6    4    9 1
   7    4   10 am
   8    4   16 1
   9    5    7 1
  10    5    9 2
  11    6   26 3
  12    7    8 2
  13    8   10 1
  14    8   13 1
  15    9   12 1
  16   11   18 ar
  17   11   19 ar
  18   12   17 2
  19   12   21 1
  20   13   15 2
  21   13   27 1
  22   14   15 1
  23   15   26 1
  24   16   20 2
  25   16   28 1
  26   17   20 1
  27   17   29 1
  28   18   23 ar
  29   18   30 1
  30   19   24 ar
  31   19   31 1
  32   20   32 1
  33   21   33 1
  34   21   34 1
  35   21   35 1
  36   22   23 ar
  37   22   24 ar
  38   22   25 1
  39   23   36 1
  40   24   37 1
  41   25   38 1
  42   25   39 1
  43   25   40 1

#	End of record

#	Name: 9550536
#	Creating user name:	landrgr1
#	Creation time:	28. 01. 2015 13:52

#	Modifying user name:	landrgr1
#	Modification time:	28. 01. 2015 13:52

#	Program:	corina 3.48 0006  22.01.2010

@<TRIPOS>MOLECULE
9550536
  68   69    0    0    0
SMALL
NO_CHARGES


@<TRIPOS>ATOM
   1 O1            -7.9688    -5.0958    -4.4519 O.2     
   2 O2            -6.4557    -2.5169    -0.8623 O.2     
   3 O3            -0.9259     1.3528     1.2023 O.3     
   4 O4             0.3963    -0.4102     0.9401 O.2     
   5 N5            -7.8924    -3.6852    -2.7413 N.am    
   6 N6            -4.4995    -2.5342    -1.9088 N.am    
   7 N7            -1.7874    -0.7695     0.7583 N.am    
   8 C8            -9.8357    -5.1916    -3.0114 C.3     
   9 C9           -11.5265    -7.4181    -2.1354 C.3     
  10 C10          -10.2989    -6.2751    -3.9872 C.3     
  11 C11           -9.7061    -5.7897    -1.6091 C.3     
  12 C12          -11.6561    -6.8199    -3.5377 C.3     
  13 C13          -11.0633    -6.3345    -1.1596 C.3     
  14 C14           -8.4989    -4.6549    -3.4541 C.2     
  15 C15           -3.7891    -2.1503    -0.6864 C.3     
  16 C16          -12.8837    -7.9629    -1.6859 C.3     
  17 C17           -6.5449    -3.2413    -3.1067 C.3     
  18 C18           -2.3226    -2.5743    -0.7944 C.3     
  19 C19           -3.8711    -0.6330    -0.5043 C.3     
  20 C20           -1.5911    -2.2024     0.4992 C.3     
  21 C21           -3.1571    -0.2390     0.7926 C.3     
  22 C22           -6.6411    -2.1150    -4.1378 C.3     
  23 C23           -5.8314    -2.7382    -1.8783 C.2     
  24 C24           -5.2385    -1.7542    -4.6313 C.3     
  25 C25           -4.6542    -2.9324    -5.4131 C.3     
  26 C26           -5.3182    -0.5272    -5.5418 C.3     
  27 C27           -0.7314     0.0417     0.9660 C.2     
  28 C28            0.2572     2.1666     1.4172 C.3     
  29 C29           -0.1600     3.6170     1.6681 C.3     
  30 H30          -10.5650    -4.3816    -2.9949 H       
  31 H31          -10.7972    -8.2280    -2.1519 H       
  32 H32          -10.3912    -5.8490    -4.9862 H       
  33 H33           -9.5696    -7.0851    -4.0037 H       
  34 H34           -8.9768    -6.5996    -1.6256 H       
  35 H35           -9.3761    -5.0177    -0.9139 H       
  36 H36          -11.9860    -7.5919    -4.2329 H       
  37 H37          -12.3853    -6.0100    -3.5213 H       
  38 H38          -11.7926    -5.5245    -1.1432 H       
  39 H39          -10.9710    -6.7606    -0.1606 H       
  40 H40           -4.2477    -2.6439     0.1704 H       
  41 H41          -13.2137    -8.7348    -2.3811 H       
  42 H42          -12.7914    -8.3890    -0.6869 H       
  43 H43          -13.6130    -7.1529    -1.6695 H       
  44 H44           -5.9900    -4.0772    -3.5324 H       
  45 H45           -2.2659    -3.6520    -0.9475 H       
  46 H46           -1.8568    -2.0618    -1.6360 H       
  47 H47           -3.3907    -0.1387    -1.3487 H       
  48 H48           -4.9165    -0.3289    -0.4509 H       
  49 H49           -8.3481    -3.2811    -1.9863 H       
  50 H50           -0.5269    -2.4116     0.3903 H       
  51 H51           -1.9967    -2.7825     1.3281 H       
  52 H52           -3.6904    -0.6590     1.6454 H       
  53 H53           -3.1262     0.8472     0.8772 H       
  54 H54           -7.2491    -2.4446    -4.9803 H       
  55 H55           -7.1008    -1.2400    -3.6783 H       
  56 H56           -4.0113    -2.6416    -2.7400 H       
  57 H57           -4.5988    -1.5319    -3.7772 H       
  58 H58           -3.6282    -2.7040    -5.7015 H       
  59 H59           -4.6656    -3.8250    -4.7875 H       
  60 H60           -5.2525    -3.1077    -6.3072 H       
  61 H61           -5.7344     0.3121    -4.9848 H       
  62 H62           -4.3189    -0.2702    -5.8934 H       
  63 H63           -5.9578    -0.7495    -6.3959 H       
  64 H64            0.8042     1.7911     2.2821 H       
  65 H65            0.8957     2.1195     0.5351 H       
  66 H66           -0.7070     3.9925     0.8032 H       
  67 H67           -0.7985     3.6641     2.5502 H       
  68 H68            0.7282     4.2279     1.8294 H       
@<TRIPOS>BOND
   1    1   14 2
   2    2   23 2
   3    3   27 1
   4    3   28 1
   5    4   27 2
   6    5   14 am
   7    5   17 1
   8    5   49 1
   9    6   15 1
  10    6   23 am
  11    6   56 1
  12    7   20 1
  13    7   21 1
  14    7   27 am
  15    8   10 1
  16    8   11 1
  17    8   14 1
  18    8   30 1
  19    9   12 1
  20    9   13 1
  21    9   16 1
  22    9   31 1
  23   10   12 1
  24   10   32 1
  25   10   33 1
  26   11   13 1
  27   11   34 1
  28   11   35 1
  29   12   36 1
  30   12   37 1
  31   13   38 1
  32   13   39 1
  33   15   18 1
  34   15   19 1
  35   15   40 1
  36   16   41 1
  37   16   42 1
  38   16   43 1
  39   17   22 1
  40   17   23 1
  41   17   44 1
  42   18   20 1
  43   18   45 1
  44   18   46 1
  45   19   21 1
  46   19   47 1
  47   19   48 1
  48   20   50 1
  49   20   51 1
  50   21   52 1
  51   21   53 1
  52   22   24 1
  53   22   54 1
  54   22   55 1
  55   24   25 1
  56   24   26 1
  57   24   57 1
  58   25   58 1
  59   25   59 1
  60   25   60 1
  61   26   61 1
  62   26   62 1
  63   26   63 1
  64   28   29 1
  65   28   64 1
  66   28   65 1
  67   29   66 1
  68   29   67 1
  69   29   68 1

#	End of record

#	Name: 9550399
#	Creating user name:	landrgr1
#	Creation time:	28. 01. 2015 13:52

#	Modifying user name:	landrgr1
#	Modification time:	28. 01. 2015 13:52

#	Program:	corina 3.48 0006  22.01.2010

@<TRIPOS>MOLECULE
9550399
  56   57    0    0    0
SMALL
NO_CHARGES


@<TRIPOS>ATOM
   1 O1             1.1734    -0.7533    -0.2123 O.2     
   2 O2             0.3504     3.5211     1.5861 O.2     
   3 N3             0.1748     1.0747     0.5513 N.am    
   4 N4             2.4950     3.8460     1.1207 N.am    
   5 N5             1.4871     5.3129     2.6554 N.ar    
   6 C6            -0.8720    -1.1392     0.9000 C.3     
   7 C7            -1.7887    -3.3273     2.6191 C.3     
   8 C8            -0.5640    -2.6003     0.5663 C.3     
   9 C9            -0.9754    -0.9735     2.4175 C.3     
  10 C10           -1.6853    -3.4930     1.1016 C.3     
  11 C11           -2.0967    -1.8662     2.9528 C.3     
  12 C12            0.2325    -0.2599     0.3728 C.2     
  13 C13           -2.9101    -4.2199     3.1544 C.3     
  14 C14            1.2978     1.9186     0.1356 C.3     
  15 C15            1.1143     2.3274    -1.3273 C.3     
  16 C16            2.3156     3.1605    -1.7786 C.3     
  17 C17            1.3458     3.1524     0.9997 C.2     
  18 C18            3.5708     2.2856    -1.7815 C.3     
  19 C19            2.0639     3.6959    -3.1896 C.3     
  20 C20            2.5724     4.9171     2.0096 C.ar    
  21 C21            3.7892     5.5593     2.2101 C.ar    
  22 C22            3.8519     6.6210     3.0951 C.ar    
  23 C23            2.6907     7.0053     3.7519 C.ar    
  24 C24            1.5166     6.3221     3.5046 C.ar    
  25 C25            2.7115     8.1561     4.7247 C.3     
  26 H26           -1.8166    -0.8524     0.4380 H       
  27 H27           -0.8441    -3.6141     3.0811 H       
  28 H28           -0.4903    -2.7183    -0.5147 H       
  29 H29            0.3807    -2.8871     1.0284 H       
  30 H30           -0.0307    -1.2604     2.8795 H       
  31 H31           -1.1948     0.0674     2.6552 H       
  32 H32           -1.4659    -4.5339     0.8639 H       
  33 H33           -2.6300    -3.2061     0.6396 H       
  34 H34           -3.0414    -1.5793     2.4908 H       
  35 H35           -2.1704    -1.7481     4.0339 H       
  36 H36           -2.6907    -5.2608     2.9167 H       
  37 H37           -2.9837    -4.1019     4.2355 H       
  38 H38           -3.8547    -3.9331     2.6924 H       
  39 H39            2.2293     1.3630     0.2435 H       
  40 H40           -0.6120     1.4769     0.9515 H       
  41 H41            1.0381     1.4342    -1.9474 H       
  42 H42            0.2039     2.9183    -1.4280 H       
  43 H43            2.4566     3.9959    -1.0928 H       
  44 H44            4.4378     2.8949    -2.0369 H       
  45 H45            3.7119     1.8494    -0.7926 H       
  46 H46            3.4569     1.4893    -2.5170 H       
  47 H47            1.1697     4.3192    -3.1875 H       
  48 H48            2.9197     4.2894    -3.5111 H       
  49 H49            1.9229     2.8605    -3.8754 H       
  50 H50            3.2683     3.5999     0.5893 H       
  51 H51            4.6734     5.2337     1.6823 H       
  52 H52            4.7832     7.1388     3.2713 H       
  53 H53            0.6108     6.6174     4.0133 H       
  54 H54            2.4991     9.0842     4.1941 H       
  55 H55            1.9555     7.9958     5.4934 H       
  56 H56            3.6950     8.2206     5.1902 H       
@<TRIPOS>BOND
   1    1   12 2
   2    2   17 2
   3    3   12 am
   4    3   14 1
   5    3   40 1
   6    4   17 am
   7    4   20 1
   8    4   50 1
   9    5   20 ar
  10    5   24 ar
  11    6    8 1
  12    6    9 1
  13    6   12 1
  14    6   26 1
  15    7   10 1
  16    7   11 1
  17    7   13 1
  18    7   27 1
  19    8   10 1
  20    8   28 1
  21    8   29 1
  22    9   11 1
  23    9   30 1
  24    9   31 1
  25   10   32 1
  26   10   33 1
  27   11   34 1
  28   11   35 1
  29   13   36 1
  30   13   37 1
  31   13   38 1
  32   14   15 1
  33   14   17 1
  34   14   39 1
  35   15   16 1
  36   15   41 1
  37   15   42 1
  38   16   18 1
  39   16   19 1
  40   16   43 1
  41   18   44 1
  42   18   45 1
  43   18   46 1
  44   19   47 1
  45   19   48 1
  46   19   49 1
  47   20   21 ar
  48   21   22 ar
  49   21   51 1
  50   22   23 ar
  51   22   52 1
  52   23   24 ar
  53   23   25 1
  54   24   53 1
  55   25   54 1
  56   25   55 1
  57   25   56 1

#	End of record

#	Name: 9550391
#	Creating user name:	landrgr1
#	Creation time:	28. 01. 2015 13:52

#	Modifying user name:	landrgr1
#	Modification time:	28. 01. 2015 13:52

#	Program:	corina 3.48 0006  22.01.2010

@<TRIPOS>MOLECULE
9550391
  57   60    0    0    0
SMALL
NO_CHARGES


@<TRIPOS>ATOM
   1 O1             5.8754    -6.3602     0.3026 O.2     
   2 O2             3.5521    -2.2613    -0.0441 O.2     
   3 O3             1.2288    -6.0367    -0.0524 O.2     
   4 O4            -0.0164     1.3563     0.0095 O.3     
   5 O5            -2.3798    -0.0456     0.0374 O.3     
   6 N6             5.9546    -6.4080     2.5193 N.am    
   7 N7             2.4113    -4.1810    -0.0434 N.am    
   8 N8             0.0530    -4.1748    -0.0199 N.am    
   9 C9             7.2013    -7.1924     2.5370 C.3     
  10 C10            8.2823    -6.3453     3.2133 C.3     
  11 C11            5.3739    -6.0343     3.8169 C.3     
  12 C12            7.7467    -5.7162     4.4652 C.2     
  13 C13            4.0972    -5.2404     1.3767 C.3     
  14 C14            5.3726    -6.0429     1.3597 C.2     
  15 C15            6.4717    -5.5695     4.7330 C.2     
  16 C16            3.6512    -4.9611    -0.0599 C.3     
  17 C17            8.7216    -5.2295     5.4639 C.ar    
  18 C18            2.4781    -2.8322    -0.0368 C.2     
  19 C19            1.2191    -2.0703    -0.0202 C.ar    
  20 C20            0.0079    -2.7862    -0.0120 C.ar    
  21 C21            1.2316    -4.8209    -0.0407 C.2     
  22 C22            8.7898    -5.8246     6.7242 C.ar    
  23 C23            9.5815    -4.1769     5.1485 C.ar    
  24 C24            1.2084    -0.6753    -0.0131 C.ar    
  25 C25           -1.1950    -2.1020     0.0093 C.ar    
  26 C26            0.0021    -0.0041     0.0020 C.ar    
  27 C27           -1.1991    -0.7160     0.0165 C.ar    
  28 C28            9.7020    -5.3656     7.6520 C.ar    
  29 C29           10.4893    -3.7273     6.0853 C.ar    
  30 C30           10.5479    -4.3178     7.3351 C.ar    
  31 C31            1.2479     2.0223     0.0010 C.3     
  32 C32           -3.5725    -0.8325     0.0509 C.3     
  33 H33            7.0493    -8.1136     3.0995 H       
  34 H34            7.5029    -7.4285     1.5165 H       
  35 H35            9.1329    -6.9791     3.4639 H       
  36 H36            8.6087    -5.5631     2.5280 H       
  37 H37            4.6527    -5.2295     3.6750 H       
  38 H38            4.8752    -6.8986     4.2553 H       
  39 H39            3.3208    -5.8030     1.8953 H       
  40 H40            4.2687    -4.2964     1.8939 H       
  41 H41            6.1955    -5.0896     5.6603 H       
  42 H42            3.4796    -5.9051    -0.5772 H       
  43 H43            4.4275    -4.3985    -0.5785 H       
  44 H44           -0.7734    -4.6826    -0.0141 H       
  45 H45            8.1297    -6.6424     6.9730 H       
  46 H46            9.5370    -3.7154     4.1731 H       
  47 H47            2.1372    -0.1243    -0.0190 H       
  48 H48           -2.1277    -2.6465     0.0198 H       
  49 H49            9.7556    -5.8250     8.6280 H       
  50 H50           11.1554    -2.9127     5.8425 H       
  51 H51           11.2602    -3.9622     8.0648 H       
  52 H52            1.0905     3.1009     0.0083 H       
  53 H53            1.8173     1.7323     0.8840 H       
  54 H54            1.8003     1.7419    -0.8958 H       
  55 H55           -3.6060    -1.4569    -0.8419 H       
  56 H56           -3.5798    -1.4661     0.9378 H       
  57 H57           -4.4416    -0.1748     0.0671 H       
@<TRIPOS>BOND
   1    1   14 2
   2    2   18 2
   3    3   21 2
   4    4   26 1
   5    4   31 1
   6    5   27 1
   7    5   32 1
   8    6    9 1
   9    6   11 1
  10    6   14 am
  11    7   16 1
  12    7   18 am
  13    7   21 am
  14    8   20 1
  15    8   21 am
  16    8   44 1
  17    9   10 1
  18    9   33 1
  19    9   34 1
  20   10   12 1
  21   10   35 1
  22   10   36 1
  23   11   15 1
  24   11   37 1
  25   11   38 1
  26   12   15 2
  27   12   17 1
  28   13   14 1
  29   13   16 1
  30   13   39 1
  31   13   40 1
  32   15   41 1
  33   16   42 1
  34   16   43 1
  35   17   22 ar
  36   17   23 ar
  37   18   19 1
  38   19   20 ar
  39   19   24 ar
  40   20   25 ar
  41   22   28 ar
  42   22   45 1
  43   23   29 ar
  44   23   46 1
  45   24   26 ar
  46   24   47 1
  47   25   27 ar
  48   25   48 1
  49   26   27 ar
  50   28   30 ar
  51   28   49 1
  52   29   30 ar
  53   29   50 1
  54   30   51 1
  55   31   52 1
  56   31   53 1
  57   31   54 1
  58   32   55 1
  59   32   56 1
  60   32   57 1

#	End of record

#	Name: 9550321
#	Creating user name:	landrgr1
#	Creation time:	28. 01. 2015 13:52

#	Modifying user name:	landrgr1
#	Modification time:	28. 01. 2015 13:52

#	Program:	corina 3.48 0006  22.01.2010

@<TRIPOS>MOLECULE
9550321
  62   64    0    0    0
SMALL
NO_CHARGES


@<TRIPOS>ATOM
   1 O1             2.1527    -4.0842     2.5871 O.2     
   2 O2             0.5982    -4.9813    -0.6347 O.2     
   3 O3            -1.5887    -3.2427    -4.0176 O.3     
   4 O4            -3.1948    -1.3538    -2.8177 O.3     
   5 O5            -1.8520     0.0742     3.8054 O.3     
   6 O6             2.2066    -8.3844    -3.5629 O.3     
   7 N7             1.6838    -2.9258     0.7931 N.am    
   8 N8             1.5692    -5.7862    -2.4599 N.am    
   9 C9             2.4660    -3.7479    -1.3830 C.3     
  10 C10            1.8458    -2.5808    -0.6138 C.3     
  11 C11            3.7230    -4.2139    -0.6386 C.3     
  12 C12            3.2944    -4.8339     0.6937 C.3     
  13 C13            0.4985    -2.2545    -1.2049 C.ar    
  14 C14            2.3388    -3.9160     1.4004 C.2     
  15 C15            1.4770    -4.8821    -1.4646 C.2     
  16 C16            0.7879    -2.1658     1.5566 C.ar    
  17 C17            0.0713    -2.9039    -2.3481 C.ar    
  18 C18           -0.3099    -1.3103    -0.5996 C.ar    
  19 C19           -0.5090    -2.6180     1.7596 C.ar    
  20 C20            1.1984    -0.9628     2.1153 C.ar    
  21 C21           -1.1672    -2.6050    -2.8929 C.ar    
  22 C22           -1.5466    -1.0074    -1.1379 C.ar    
  23 C23            0.6079    -6.8888    -2.5393 C.3     
  24 C24           -1.9784    -1.6506    -2.2868 C.ar    
  25 C25           -1.3914    -1.8684     2.5121 C.ar    
  26 C26            0.3150    -0.2142     2.8676 C.ar    
  27 C27           -0.9825    -0.6636     3.0648 C.ar    
  28 C28            0.9336    -7.7632    -3.7518 C.3     
  29 C29           -0.7033    -4.2100    -4.5855 C.3     
  30 C30           -3.9734    -0.3640    -2.1424 C.3     
  31 C31           -1.3638     1.3043     4.3443 C.3     
  32 C32            2.6080    -9.2278    -4.6444 C.3     
  33 H33            2.7356    -3.4217    -2.3875 H       
  34 H34            2.4938    -1.7085    -0.6985 H       
  35 H35            4.2493    -4.9576    -1.2370 H       
  36 H36            4.3769    -3.3617    -0.4534 H       
  37 H37            2.8067    -5.7907     0.5075 H       
  38 H38            4.1733    -4.9924     1.3186 H       
  39 H39            0.7030    -3.6440    -2.8167 H       
  40 H40            0.0254    -0.8086     0.2961 H       
  41 H41            2.2721    -5.7069    -3.1237 H       
  42 H42           -0.8277    -3.5557     1.3287 H       
  43 H43            2.2085    -0.6127     1.9617 H       
  44 H44           -2.1764    -0.2698    -0.6629 H       
  45 H45            0.6680    -7.4894    -1.6316 H       
  46 H46           -0.3996    -6.4858    -2.6421 H       
  47 H47           -2.4003    -2.2201     2.6701 H       
  48 H48            0.6341     0.7216     3.3022 H       
  49 H49            0.9607    -7.1448    -4.6489 H       
  50 H50            0.1676    -8.5308    -3.8625 H       
  51 H51            0.2358    -3.7278    -4.8567 H       
  52 H52           -0.5103    -4.9976    -3.8572 H       
  53 H53           -1.1602    -4.6423    -5.4757 H       
  54 H54           -3.4250     0.5779    -2.1218 H       
  55 H55           -4.9176    -0.2232    -2.6684 H       
  56 H56           -4.1713    -0.6915    -1.1218 H       
  57 H57            2.6698    -8.6397    -5.5601 H       
  58 H58            3.5836    -9.6612    -4.4244 H       
  59 H59            1.8768   -10.0257    -4.7737 H       
  60 H60           -1.0453     1.9563     3.5310 H       
  61 H61           -2.1561     1.7921     4.9120 H       
  62 H62           -0.5175     1.1027     5.0011 H       
@<TRIPOS>BOND
   1    1   14 2
   2    2   15 2
   3    3   21 1
   4    3   29 1
   5    4   24 1
   6    4   30 1
   7    5   27 1
   8    5   31 1
   9    6   28 1
  10    6   32 1
  11    7   10 1
  12    7   14 am
  13    7   16 1
  14    8   15 am
  15    8   23 1
  16    8   41 1
  17    9   10 1
  18    9   11 1
  19    9   15 1
  20    9   33 1
  21   10   13 1
  22   10   34 1
  23   11   12 1
  24   11   35 1
  25   11   36 1
  26   12   14 1
  27   12   37 1
  28   12   38 1
  29   13   17 ar
  30   13   18 ar
  31   16   19 ar
  32   16   20 ar
  33   17   21 ar
  34   17   39 1
  35   18   22 ar
  36   18   40 1
  37   19   25 ar
  38   19   42 1
  39   20   26 ar
  40   20   43 1
  41   21   24 ar
  42   22   24 ar
  43   22   44 1
  44   23   28 1
  45   23   45 1
  46   23   46 1
  47   25   27 ar
  48   25   47 1
  49   26   27 ar
  50   26   48 1
  51   28   49 1
  52   28   50 1
  53   29   51 1
  54   29   52 1
  55   29   53 1
  56   30   54 1
  57   30   55 1
  58   30   56 1
  59   31   60 1
  60   31   61 1
  61   31   62 1
  62   32   57 1
  63   32   58 1
  64   32   59 1

#	End of record

#	Name: 9550285
#	Creating user name:	landrgr1
#	Creation time:	28. 01. 2015 13:52

#	Modifying user name:	landrgr1
#	Modification time:	28. 01. 2015 13:52

#	Program:	corina 3.48 0006  22.01.2010

@<TRIPOS>MOLECULE
9550285
  56   59    0    0    0
SMALL
NO_CHARGES


@<TRIPOS>ATOM
   1 S1            -0.1899     1.5779    -0.2542 S.o2    
   2 O2            -5.1671     0.7031     6.9842 O.2     
   3 O3            -3.4350    -0.4955     3.4973 O.2     
   4 O4            -0.0723     0.1632    -0.1916 O.2     
   5 O5             0.9243     2.4438    -0.4217 O.2     
   6 N6            -5.0572    -0.9363     5.4889 N.am    
   7 N7            -2.8598     3.2893     4.7474 N.pl3   
   8 N8            -1.2288     1.9061    -1.5013 N.am    
   9 C9            -6.0040    -1.7555     6.2497 C.3     
  10 C10           -6.6739    -2.7849     5.3226 C.3     
  11 C11           -5.2557    -2.5594     7.3330 C.3     
  12 C12           -6.3092    -4.1784     5.8750 C.3     
  13 C13           -5.9893    -3.9231     7.3688 C.3     
  14 C14           -4.7401     0.3012     5.9184 C.2     
  15 C15           -3.8774     1.1660     5.0982 C.2     
  16 C16           -3.2555     0.6514     3.8680 C.2     
  17 C17           -2.4053     1.5823     3.1027 C.ar    
  18 C18           -3.6393     2.4731     5.4691 C.2     
  19 C19           -2.2380     2.8917     3.5837 C.ar    
  20 C20           -0.9885     2.0771     1.2350 C.ar    
  21 C21           -1.7755     1.1815     1.9243 C.ar    
  22 C22           -1.4368     3.7802     2.8706 C.ar    
  23 C23           -0.8214     3.3710     1.7083 C.ar    
  24 C24           -1.6455     3.2183    -1.7363 C.ar    
  25 C25           -2.9394     3.4700    -2.1752 C.ar    
  26 C26           -3.8958     2.3270    -2.3986 C.3     
  27 C27           -0.7690     4.2751    -1.5261 C.ar    
  28 C28           -3.3482     4.7685    -2.4060 C.ar    
  29 C29           -1.1845     5.5716    -1.7590 C.ar    
  30 C30           -2.4711     5.8181    -2.2012 C.ar    
  31 C31           -4.5727     1.9624    -1.0758 C.3     
  32 H32           -6.7604    -1.1204     6.7108 H       
  33 H33           -7.7554    -2.6499     5.3345 H       
  34 H34           -6.2946    -2.6750     4.3067 H       
  35 H35           -4.2109    -2.6955     7.0536 H       
  36 H36           -5.3313    -2.0601     8.2990 H       
  37 H37           -7.1537    -4.8606     5.7769 H       
  38 H38           -5.4346    -4.5759     5.3601 H       
  39 H39           -5.3370    -4.7024     7.7628 H       
  40 H40           -6.9064    -3.8531     7.9538 H       
  41 H41           -4.6586    -1.2846     4.6761 H       
  42 H42           -4.0957     2.8509     6.3721 H       
  43 H43           -2.7308     4.2001     5.0550 H       
  44 H44           -1.9039     0.1748     1.5550 H       
  45 H45           -1.2988     4.7898     3.2284 H       
  46 H46           -0.2016     4.0646     1.1595 H       
  47 H47           -1.5480     1.1869    -2.0687 H       
  48 H48           -4.6530     2.6234    -3.1246 H       
  49 H49           -3.3483     1.4637    -2.7767 H       
  50 H50            0.2361     4.0832    -1.1807 H       
  51 H51           -4.3539     4.9648    -2.7472 H       
  52 H52           -0.5035     6.3938    -1.5954 H       
  53 H53           -2.7932     6.8327    -2.3832 H       
  54 H54           -5.1203     2.8257    -0.6978 H       
  55 H55           -5.2645     1.1357    -1.2375 H       
  56 H56           -3.8156     1.6659    -0.3499 H       
@<TRIPOS>BOND
   1    1    4 2
   2    1    5 2
   3    1    8 am
   4    1   20 1
   5    2   14 2
   6    3   16 2
   7    6    9 1
   8    6   14 am
   9    6   41 1
  10    7   18 1
  11    7   19 1
  12    7   43 1
  13    8   24 1
  14    8   47 1
  15    9   10 1
  16    9   11 1
  17    9   32 1
  18   10   12 1
  19   10   33 1
  20   10   34 1
  21   11   13 1
  22   11   35 1
  23   11   36 1
  24   12   13 1
  25   12   37 1
  26   12   38 1
  27   13   39 1
  28   13   40 1
  29   14   15 1
  30   15   16 1
  31   15   18 2
  32   16   17 1
  33   17   19 ar
  34   17   21 ar
  35   18   42 1
  36   19   22 ar
  37   20   21 ar
  38   20   23 ar
  39   21   44 1
  40   22   23 ar
  41   22   45 1
  42   23   46 1
  43   24   25 ar
  44   24   27 ar
  45   25   26 1
  46   25   28 ar
  47   26   31 1
  48   26   48 1
  49   26   49 1
  50   27   29 ar
  51   27   50 1
  52   28   30 ar
  53   28   51 1
  54   29   30 ar
  55   29   52 1
  56   30   53 1
  57   31   54 1
  58   31   55 1
  59   31   56 1

#	End of record

#	Name: 9550271
#	Creating user name:	landrgr1
#	Creation time:	28. 01. 2015 13:52

#	Modifying user name:	landrgr1
#	Modification time:	28. 01. 2015 13:52

#	Program:	corina 3.48 0006  22.01.2010

@<TRIPOS>MOLECULE
9550271
  55   57    0    0    0
SMALL
NO_CHARGES


@<TRIPOS>ATOM
   1 Cl1           -8.2328    -1.5585     5.4914 Cl      
   2 S2             0.2899     1.4230     0.4140 S.o2    
   3 F3            -3.1476     2.9928     4.9301 F       
   4 O4             0.2896     0.0025     0.3759 O.2     
   5 O5             1.4756     2.1970     0.5331 O.2     
   6 O6            -2.1436     1.8305    -5.4462 O.3     
   7 O7            -1.0619     3.7584    -5.2512 O.2     
   8 O8            -4.2843     0.7772     4.7073 O.2     
   9 N9            -0.4610     1.9282    -0.9728 N.am    
  10 N10           -0.6743     2.2378    -3.6801 N.am    
  11 N11           -3.7358    -0.7465     3.1872 N.am    
  12 C12           -0.1998     3.2671    -1.5196 C.3     
  13 C13           -1.3958     1.0434    -1.6821 C.3     
  14 C14            0.2648     3.1205    -2.9739 C.3     
  15 C15           -0.9287     0.9015    -3.1361 C.3     
  16 C16           -0.7434     1.8847     1.7645 C.ar    
  17 C17           -1.2854     2.6490    -4.8088 C.2     
  18 C18           -1.7134     1.0153     2.2158 C.ar    
  19 C19           -0.5746     3.1171     2.3726 C.ar    
  20 C20           -2.5320     1.3814     3.2867 C.ar    
  21 C21           -1.3796     3.4886     3.4328 C.ar    
  22 C22           -2.3608     2.6295     3.8936 C.ar    
  23 C23           -2.7651     2.3396    -6.6557 C.3     
  24 C24           -3.5734     0.4554     3.7750 C.2     
  25 C25           -3.7007     1.2764    -7.2347 C.3     
  26 C26           -4.6549    -1.6619     3.7097 C.ar    
  27 C27           -5.8419    -1.2118     4.2721 C.ar    
  28 C28           -4.3847    -3.0237     3.6618 C.ar    
  29 C29           -6.4734    -3.4750     4.7425 C.ar    
  30 C30           -6.7485    -2.1195     4.7873 C.ar    
  31 C31           -5.2941    -3.9257     4.1780 C.ar    
  32 C32           -7.4632    -4.4622     5.3053 C.3     
  33 H33           -1.1134     3.8608    -1.4855 H       
  34 H34            0.5790     3.7558    -0.9342 H       
  35 H35           -1.4065     0.0639    -1.2041 H       
  36 H36           -2.3964     1.4751    -1.6598 H       
  37 H37            1.2646     2.6872    -3.0005 H       
  38 H38            0.2752     4.1004    -3.4512 H       
  39 H39           -1.7079     0.4112    -3.7195 H       
  40 H40           -0.0134     0.3108    -3.1741 H       
  41 H41           -1.8403     0.0531     1.7421 H       
  42 H42            0.1902     3.7915     2.0167 H       
  43 H43           -1.2423     4.4515     3.9023 H       
  44 H44           -3.3367     3.2373    -6.4203 H       
  45 H45           -1.9934     2.5814    -7.3866 H       
  46 H46           -3.2152    -0.9766     2.4017 H       
  47 H47           -3.1291     0.3787    -7.4701 H       
  48 H48           -4.4724     1.0346    -6.5038 H       
  49 H49           -4.1672     1.6586    -8.1427 H       
  50 H50           -6.0565    -0.1539     4.3074 H       
  51 H51           -3.4642    -3.3769     3.2209 H       
  52 H52           -5.0843    -4.9844     4.1406 H       
  53 H53           -8.1607    -4.7631     4.5236 H       
  54 H54           -6.9316    -5.3390     5.6750 H       
  55 H55           -8.0131    -3.9986     6.1242 H       
@<TRIPOS>BOND
   1    1   30 1
   2    2    4 2
   3    2    5 2
   4    2    9 am
   5    2   16 1
   6    3   22 1
   7    6   17 1
   8    6   23 1
   9    7   17 2
  10    8   24 2
  11    9   12 1
  12    9   13 1
  13   10   14 1
  14   10   15 1
  15   10   17 am
  16   11   24 am
  17   11   26 1
  18   11   46 1
  19   12   14 1
  20   12   33 1
  21   12   34 1
  22   13   15 1
  23   13   35 1
  24   13   36 1
  25   14   37 1
  26   14   38 1
  27   15   39 1
  28   15   40 1
  29   16   18 ar
  30   16   19 ar
  31   18   20 ar
  32   18   41 1
  33   19   21 ar
  34   19   42 1
  35   20   22 ar
  36   20   24 1
  37   21   22 ar
  38   21   43 1
  39   23   25 1
  40   23   44 1
  41   23   45 1
  42   25   47 1
  43   25   48 1
  44   25   49 1
  45   26   27 ar
  46   26   28 ar
  47   27   30 ar
  48   27   50 1
  49   28   31 ar
  50   28   51 1
  51   29   30 ar
  52   29   31 ar
  53   29   32 1
  54   31   52 1
  55   32   53 1
  56   32   54 1
  57   32   55 1

#	End of record

#	Name: 9550270
#	Creating user name:	landrgr1
#	Creation time:	28. 01. 2015 13:52

#	Modifying user name:	landrgr1
#	Modification time:	28. 01. 2015 13:52

#	Program:	corina 3.48 0006  22.01.2010

@<TRIPOS>MOLECULE
9550270
  44   45    0    0    0
SMALL
NO_CHARGES


@<TRIPOS>ATOM
   1 S1            -0.6798     1.2375     0.1111 S.o2    
   2 S2             2.3023     4.3385    -3.3536 S.3     
   3 S3            -2.5197     2.8497     2.0572 S.3     
   4 O4            -3.3908     2.5410    -2.1910 O.2     
   5 O5            -0.5063    -0.1624    -0.0606 O.2     
   6 O6             0.3055     2.0766     0.6979 O.2     
   7 N7            -0.9875     1.8585    -1.3929 N.am    
   8 N8            -3.1299     4.7438    -2.2322 N.am    
   9 C9            -1.2456     3.2915    -1.5550 C.3     
  10 C10           -0.2834     3.8685    -2.5953 C.3     
  11 C11           -2.6657     3.4972    -2.0154 C.2     
  12 C12            1.1502     3.7805    -2.0682 C.3     
  13 C13           -4.5105     4.9437    -2.6798 C.3     
  14 C14           -2.1438     1.4435     1.0698 C.2     
  15 C15           -4.7760     6.4178    -2.8465 C.ar    
  16 C16           -3.1368     0.5571     1.1573 C.2     
  17 C17           -4.5374     7.0298    -4.0628 C.ar    
  18 C18           -5.2634     7.1567    -1.7848 C.ar    
  19 C19           -4.1884     0.9380     1.9728 C.2     
  20 C20           -4.0495     2.1336     2.5476 C.2     
  21 C21            3.9212     4.1640    -2.5541 C.3     
  22 C22           -4.7809     8.3819    -4.2157 C.ar    
  23 C23           -5.5069     8.5088    -1.9377 C.ar    
  24 C24           -5.2634     9.1219    -3.1524 C.ar    
  25 H25           -1.0959     3.7977    -0.6013 H       
  26 H26           -0.3657     3.2995    -3.5213 H       
  27 H27           -0.5371     4.9113    -2.7858 H       
  28 H28           -0.9968     1.2735    -2.1666 H       
  29 H29            1.3763     2.7483    -1.8008 H       
  30 H30            1.2532     4.4148    -1.1878 H       
  31 H31           -2.5500     5.5085    -2.0918 H       
  32 H32           -4.6601     4.4375    -3.6334 H       
  33 H33           -5.1959     4.5326    -1.9387 H       
  34 H34           -3.1216    -0.3860     0.6313 H       
  35 H35           -4.1604     6.4517    -4.8935 H       
  36 H36           -5.4543     6.6775    -0.8359 H       
  37 H37           -5.0559     0.3145     2.1313 H       
  38 H38           -4.7665     2.5917     3.2128 H       
  39 H39            3.9549     4.7887    -1.6615 H       
  40 H40            4.0780     3.1222    -2.2746 H       
  41 H41            4.7036     4.4762    -3.2459 H       
  42 H42           -4.5938     8.8603    -5.1658 H       
  43 H43           -5.8881     9.0860    -1.1082 H       
  44 H44           -5.4533    10.1784    -3.2718 H       
@<TRIPOS>BOND
   1    1    5 2
   2    1    6 2
   3    1    7 am
   4    1   14 1
   5    2   12 1
   6    2   21 1
   7    3   14 1
   8    3   20 1
   9    4   11 2
  10    7    9 1
  11    7   28 1
  12    8   11 am
  13    8   13 1
  14    8   31 1
  15    9   10 1
  16    9   11 1
  17    9   25 1
  18   10   12 1
  19   10   26 1
  20   10   27 1
  21   12   29 1
  22   12   30 1
  23   13   15 1
  24   13   32 1
  25   13   33 1
  26   14   16 2
  27   15   17 ar
  28   15   18 ar
  29   16   19 1
  30   16   34 1
  31   17   22 ar
  32   17   35 1
  33   18   23 ar
  34   18   36 1
  35   19   20 2
  36   19   37 1
  37   20   38 1
  38   21   39 1
  39   21   40 1
  40   21   41 1
  41   22   24 ar
  42   22   42 1
  43   23   24 ar
  44   23   43 1
  45   24   44 1

#	End of record

#	Name: 9550222
#	Creating user name:	landrgr1
#	Creation time:	28. 01. 2015 13:52

#	Modifying user name:	landrgr1
#	Modification time:	28. 01. 2015 13:52

#	Program:	corina 3.48 0006  22.01.2010

@<TRIPOS>MOLECULE
9550222
  54   57    0    0    0
SMALL
NO_CHARGES


@<TRIPOS>ATOM
   1 O1            -0.0174     1.4288     0.0099 O.3     
   2 O2             1.3680    -0.4497    -0.0300 O.3     
   3 O3            -4.4461    -1.4259     1.1438 O.2     
   4 O4            -7.7923    -3.3751    -1.9325 O.3     
   5 O5            -8.5083    -3.7191    -6.4903 O.2     
   6 N6            -2.7936    -0.4157     0.0617 N.am    
   7 N7           -10.0298    -4.6548    -5.1877 N.am    
   8 C8             0.0021    -0.0041     0.0020 C.3     
   9 C9            -0.6754    -0.5344     1.2672 C.3     
  10 C10           -0.7305    -0.5218    -1.2372 C.3     
  11 C11           -2.1237    -0.0371     1.3133 C.3     
  12 C12           -2.1794    -0.0248    -1.2145 C.3     
  13 C13            1.3537     1.8756    -0.0008 C.3     
  14 C14            2.1276     0.6455     0.5358 C.3     
  15 C15           -3.9493    -1.1088     0.0838 C.2     
  16 C16           -4.6244    -1.4897    -1.2086 C.3     
  17 C17           -5.9081    -2.2646    -0.9044 C.3     
  18 C18           -6.5934    -2.6513    -2.2166 C.3     
  19 C19           -8.5229    -3.7935    -2.9917 C.2     
  20 C20           -9.7703    -4.5447    -2.7961 C.ar    
  21 C21          -10.4979    -4.9596    -3.9256 C.ar    
  22 C22           -8.1190    -3.5275    -4.2692 C.2     
  23 C23           -8.8875    -3.9676    -5.3580 C.2     
  24 C24          -10.2379    -4.8484    -1.5156 C.ar    
  25 C25          -11.6801    -5.6712    -3.7548 C.ar    
  26 C26          -10.7875    -5.0941    -6.3620 C.3     
  27 C27          -11.4108    -5.5546    -1.3693 C.ar    
  28 C28          -12.1282    -5.9636    -2.4844 C.ar    
  29 H29           -0.6651    -1.6243     1.2557 H       
  30 H30           -0.1390    -0.1744     2.1451 H       
  31 H31           -0.2333    -0.1527    -2.1343 H       
  32 H32           -0.7197    -1.6118    -1.2373 H       
  33 H33           -2.1344     1.0476     1.4199 H       
  34 H34           -2.6403    -0.4944     2.1572 H       
  35 H35           -2.7328    -0.4741    -2.0391 H       
  36 H36           -2.1948     1.0609    -1.3100 H       
  37 H37            1.6718     2.1185    -1.0147 H       
  38 H38            1.4850     2.7319     0.6608 H       
  39 H39            2.1044     0.6147     1.6251 H       
  40 H40            3.1538     0.6394     0.1685 H       
  41 H41           -4.8687    -0.5881    -1.7704 H       
  42 H42           -3.9538    -2.1147    -1.7983 H       
  43 H43           -5.6637    -3.1662    -0.3427 H       
  44 H44           -6.5787    -1.6396    -0.3147 H       
  45 H45           -5.9228    -3.2763    -2.8063 H       
  46 H46           -6.8377    -1.7497    -2.7783 H       
  47 H47           -7.2060    -2.9771    -4.4419 H       
  48 H48           -9.6825    -4.5315    -0.6452 H       
  49 H49          -12.2464    -5.9941    -4.6158 H       
  50 H50          -11.5078    -4.3242    -6.6385 H       
  51 H51          -10.1030    -5.2663    -7.1926 H       
  52 H52          -11.3156    -6.0187    -6.1287 H       
  53 H53          -11.7749    -5.7913    -0.3805 H       
  54 H54          -13.0471    -6.5162    -2.3558 H       
@<TRIPOS>BOND
   1    1    8 1
   2    1   13 1
   3    2    8 1
   4    2   14 1
   5    3   15 2
   6    4   18 1
   7    4   19 1
   8    5   23 2
   9    6   11 1
  10    6   12 1
  11    6   15 am
  12    7   21 1
  13    7   23 am
  14    7   26 1
  15    8    9 1
  16    8   10 1
  17    9   11 1
  18    9   29 1
  19    9   30 1
  20   10   12 1
  21   10   31 1
  22   10   32 1
  23   11   33 1
  24   11   34 1
  25   12   35 1
  26   12   36 1
  27   13   14 1
  28   13   37 1
  29   13   38 1
  30   14   39 1
  31   14   40 1
  32   15   16 1
  33   16   17 1
  34   16   41 1
  35   16   42 1
  36   17   18 1
  37   17   43 1
  38   17   44 1
  39   18   45 1
  40   18   46 1
  41   19   20 1
  42   19   22 2
  43   20   21 ar
  44   20   24 ar
  45   21   25 ar
  46   22   23 1
  47   22   47 1
  48   24   27 ar
  49   24   48 1
  50   25   28 ar
  51   25   49 1
  52   26   50 1
  53   26   51 1
  54   26   52 1
  55   27   28 ar
  56   27   53 1
  57   28   54 1

#	End of record

#	Name: 9550203
#	Creating user name:	landrgr1
#	Creation time:	28. 01. 2015 13:52

#	Modifying user name:	landrgr1
#	Modification time:	28. 01. 2015 13:52

#	Program:	corina 3.48 0006  22.01.2010

@<TRIPOS>MOLECULE
9550203
  27   28    0    0    0
SMALL
NO_CHARGES


@<TRIPOS>ATOM
   1 Br1           -9.8484    -1.3884     0.0815 Br      
   2 O2            -0.0162     1.3451     0.0094 O.3     
   3 O3            -2.4098    -0.3495     0.0227 O.3     
   4 O4            -1.0278    -2.0891     0.0011 O.2     
   5 N5            -3.3460    -1.1287     0.0275 N.2     
   6 N6            -4.8020     0.6844     0.0501 N.pl3   
   7 C7            -5.7050    -1.6259     0.0469 C.ar    
   8 C8            -7.0145    -1.1467     0.0615 C.ar    
   9 C9            -5.4714    -3.0011     0.0320 C.ar    
  10 C10           -4.5672    -0.6788     0.0411 C.2     
  11 C11           -8.0716    -2.0353     0.0611 C.ar    
  12 C12           -6.5356    -3.8791     0.0318 C.ar    
  13 C13           -7.8328    -3.3986     0.0463 C.ar    
  14 C14            0.0021    -0.0041     0.0020 C.2     
  15 C15            1.3070    -0.4088    -0.0126 C.2     
  16 C16            2.0903     0.7554    -0.0138 C.2     
  17 C17           -1.1713    -0.8810     0.0085 C.2     
  18 C18            1.2409     1.8067    -0.0001 C.2     
  19 H19           -7.2015    -0.0831     0.0734 H       
  20 H20           -4.4593    -3.3778     0.0204 H       
  21 H21           -6.3556    -4.9440     0.0200 H       
  22 H22           -8.6626    -4.0899     0.0465 H       
  23 H23            1.6660    -1.4273    -0.0215 H       
  24 H24            3.1693     0.8026    -0.0239 H       
  25 H25            1.5286     2.8476     0.0022 H       
  26 H26           -4.0565     1.3050     0.0463 H       
  27 H27           -5.7121     1.0197     0.0603 H       
@<TRIPOS>BOND
   1    1   11 1
   2    2   14 1
   3    2   18 1
   4    3    5 1
   5    3   17 1
   6    4   17 2
   7    5   10 2
   8    6   10 1
   9    6   26 1
  10    6   27 1
  11    7    8 ar
  12    7    9 ar
  13    7   10 1
  14    8   11 ar
  15    8   19 1
  16    9   12 ar
  17    9   20 1
  18   11   13 ar
  19   12   13 ar
  20   12   21 1
  21   13   22 1
  22   14   15 2
  23   14   17 1
  24   15   16 1
  25   15   23 1
  26   16   18 2
  27   16   24 1
  28   18   25 1

#	End of record

#	Name: 9550129
#	Creating user name:	landrgr1
#	Creation time:	28. 01. 2015 13:52

#	Modifying user name:	landrgr1
#	Modification time:	28. 01. 2015 13:52

#	Program:	corina 3.48 0006  22.01.2010

@<TRIPOS>MOLECULE
9550129
  63   67    0    0    0
SMALL
NO_CHARGES


@<TRIPOS>ATOM
   1 S1             0.1956     1.8743     0.3440 S.o2    
   2 O2             0.3505     0.4618     0.3559 O.2     
   3 O3             1.2915     2.7769     0.4031 O.2     
   4 O4            -6.2672    -0.1583     5.0406 O.2     
   5 O5            -3.5395    -0.4824     3.4096 O.2     
   6 N6            -0.6388     2.2415    -1.0385 N.am    
   7 N7            -4.9826    -0.3660     6.8412 N.am    
   8 N8            -3.3047     3.2431     4.9209 N.pl3   
   9 C9            -0.5400     3.5785    -1.6396 C.3     
  10 C10           -1.4871     1.2347    -1.6907 C.3     
  11 C11           -0.1373     3.4295    -3.1101 C.3     
  12 C12           -1.0717     1.1172    -3.1605 C.3     
  13 C13           -1.1250     2.4957    -3.8132 C.3     
  14 C14           -0.8502     2.2715     1.7054 C.ar    
  15 C15           -5.9688    -1.1994     7.5488 C.3     
  16 C16           -2.5322     1.6400     3.2904 C.ar    
  17 C17           -3.7018    -0.1222     7.5134 C.3     
  18 C18           -5.3821    -2.6031     7.6901 C.3     
  19 C19           -2.4904     2.9257     3.8555 C.ar    
  20 C20           -1.7067     1.3198     2.2125 C.ar    
  21 C21           -3.1875    -1.4094     8.1077 C.ar    
  22 C22           -3.9641    -2.5434     8.1937 C.ar    
  23 C23           -0.8077     3.5425     2.2612 C.ar    
  24 C24           -4.2914     1.0780     4.9968 C.2     
  25 C25           -5.2439     0.1475     5.6228 C.2     
  26 C26           -3.4617     0.6470     3.8606 C.2     
  27 C27           -1.6168     3.8724     3.3260 C.ar    
  28 C28           -4.1608     2.3687     5.4658 C.2     
  29 C29           -3.2266     4.5927     5.4855 C.3     
  30 C30           -1.8826    -1.4282     8.5802 C.ar    
  31 C31           -3.4344    -3.6940     8.7646 C.ar    
  32 C32           -1.3579    -2.5737     9.1432 C.ar    
  33 C33           -2.1386    -3.7104     9.2375 C.ar    
  34 C34           -4.2236     5.5044     4.7675 C.3     
  35 H35           -1.5051     4.0808    -1.5742 H       
  36 H36            0.2144     4.1618    -1.1115 H       
  37 H37           -1.3575     0.2720    -1.1962 H       
  38 H38           -2.5312     1.5416    -1.6295 H       
  39 H39           -0.1539     4.4067    -3.5927 H       
  40 H40            0.8669     3.0099    -3.1716 H       
  41 H41           -0.0570     0.7237    -3.2214 H       
  42 H42           -1.7550     0.4446    -3.6790 H       
  43 H43           -2.1324     2.9034    -3.7300 H       
  44 H44           -0.8551     2.4074    -4.8656 H       
  45 H45           -6.1651    -0.7807     8.5359 H       
  46 H46           -6.8946    -1.2427     6.9751 H       
  47 H47           -2.9795     0.2579     6.7910 H       
  48 H48           -3.8422     0.6126     8.3061 H       
  49 H49           -5.9881    -3.1758     8.3922 H       
  50 H50           -5.3970    -3.0973     6.7187 H       
  51 H51           -1.7387     0.3314     1.7785 H       
  52 H52           -0.1319     4.2807     1.8554 H       
  53 H53           -1.5741     4.8648     3.7499 H       
  54 H54           -4.7696     2.6849     6.2999 H       
  55 H55           -3.4673     4.5565     6.5480 H       
  56 H56           -2.2175     4.9834     5.3547 H       
  57 H57           -1.2731    -0.5397     8.5065 H       
  58 H58           -4.0427    -4.5833     8.8391 H       
  59 H59           -0.3416    -2.5820     9.5084 H       
  60 H60           -1.7353    -4.6090     9.6806 H       
  61 H61           -4.1655     6.5085     5.1876 H       
  62 H62           -3.9830     5.5406     3.7050 H       
  63 H63           -5.2328     5.1137     4.8984 H       
@<TRIPOS>BOND
   1    1    2 2
   2    1    3 2
   3    1    6 am
   4    1   14 1
   5    4   25 2
   6    5   26 2
   7    6    9 1
   8    6   10 1
   9    7   15 1
  10    7   17 1
  11    7   25 am
  12    8   19 1
  13    8   28 1
  14    8   29 1
  15    9   11 1
  16    9   35 1
  17    9   36 1
  18   10   12 1
  19   10   37 1
  20   10   38 1
  21   11   13 1
  22   11   39 1
  23   11   40 1
  24   12   13 1
  25   12   41 1
  26   12   42 1
  27   13   43 1
  28   13   44 1
  29   14   20 ar
  30   14   23 ar
  31   15   18 1
  32   15   45 1
  33   15   46 1
  34   16   19 ar
  35   16   20 ar
  36   16   26 1
  37   17   21 1
  38   17   47 1
  39   17   48 1
  40   18   22 1
  41   18   49 1
  42   18   50 1
  43   19   27 ar
  44   20   51 1
  45   21   22 ar
  46   21   30 ar
  47   22   31 ar
  48   23   27 ar
  49   23   52 1
  50   24   25 1
  51   24   26 1
  52   24   28 2
  53   27   53 1
  54   28   54 1
  55   29   34 1
  56   29   55 1
  57   29   56 1
  58   30   32 ar
  59   30   57 1
  60   31   33 ar
  61   31   58 1
  62   32   33 ar
  63   32   59 1
  64   33   60 1
  65   34   61 1
  66   34   62 1
  67   34   63 1

#	End of record

#	Name: 9550118
#	Creating user name:	landrgr1
#	Creation time:	28. 01. 2015 13:52

#	Modifying user name:	landrgr1
#	Modification time:	28. 01. 2015 13:52

#	Program:	corina 3.48 0006  22.01.2010

@<TRIPOS>MOLECULE
9550118
  44   43    0    0    0
SMALL
NO_CHARGES


@<TRIPOS>ATOM
   1 Br1            0.0000     0.0000     0.0000 Br      
   2 H2             0.0000     1.5100     0.0000 H       
   3 S3            15.3445    14.7864    10.0904 S.3     
   4 O4            13.2638    12.7932     8.8459 O.3     
   5 O5            13.3735    11.7935     6.7993 O.2     
   6 N6            17.5282    16.4149    10.0783 N.pl3   
   7 N7            17.9271    14.1283    10.0622 N.2     
   8 C8            13.2437    10.4874     8.8534 C.3     
   9 C9            13.9382    10.9063    10.1688 C.3     
  10 C10           11.7916    10.0833     9.1161 C.3     
  11 C11           13.9336    12.4470    10.0913 C.3     
  12 C12           11.1669     9.5563     7.8226 C.3     
  13 C13           13.3033    11.7443     8.0045 C.2     
  14 C14            9.7148     9.1521     8.0853 C.3     
  15 C15           15.3690    12.9765    10.0805 C.3     
  16 C16            9.0902     8.6251     6.7919 C.3     
  17 C17            7.6381     8.2209     7.0545 C.3     
  18 C18            7.0134     7.6939     5.7611 C.3     
  19 C19            5.5614     7.2898     6.0237 C.3     
  20 C20           17.0753    15.1159    10.0757 C.2     
  21 H21           13.7871     9.6724     8.3752 H       
  22 H22           13.3681    10.5624    11.0318 H       
  23 H23           14.9589    10.5255    10.2036 H       
  24 H24           11.7635     9.3035     9.8771 H       
  25 H25           11.2302    10.9505     9.4636 H       
  26 H26           13.3874    12.8625    10.9381 H       
  27 H27           11.1951    10.3360     7.0616 H       
  28 H28           11.7283     8.6890     7.4751 H       
  29 H29            9.6867     8.3723     8.8464 H       
  30 H30            9.1535    10.0194     8.4328 H       
  31 H31           15.8792    12.6250     9.1837 H       
  32 H32           15.8962    12.6155    10.9635 H       
  33 H33            9.1183     9.4049     6.0308 H       
  34 H34            9.6516     7.7578     6.4443 H       
  35 H35            7.6100     7.4412     7.8156 H       
  36 H36            7.0767     9.0882     7.4020 H       
  37 H37            7.0416     8.4737     5.0000 H       
  38 H38            7.5748     6.8267     5.4136 H       
  39 H39            5.5332     6.5100     6.7848 H       
  40 H40            5.0000     8.1571     6.3713 H       
  41 H41            5.1163     6.9143     5.1023 H       
  42 H42           16.8947    17.1494    10.0883 H       
  43 H43           18.4811    16.5963    10.0702 H       
  44 H44           18.8800    14.3097    10.0541 H       
@<TRIPOS>BOND
   1    1    2 1
   2    3   15 1
   3    3   20 1
   4    4   11 1
   5    4   13 1
   6    5   13 2
   7    6   20 1
   8    6   42 1
   9    6   43 1
  10    7   20 2
  11    7   44 1
  12    8    9 1
  13    8   10 1
  14    8   13 1
  15    8   21 1
  16    9   11 1
  17    9   22 1
  18    9   23 1
  19   10   12 1
  20   10   24 1
  21   10   25 1
  22   11   15 1
  23   11   26 1
  24   12   14 1
  25   12   27 1
  26   12   28 1
  27   14   16 1
  28   14   29 1
  29   14   30 1
  30   15   31 1
  31   15   32 1
  32   16   17 1
  33   16   33 1
  34   16   34 1
  35   17   18 1
  36   17   35 1
  37   17   36 1
  38   18   19 1
  39   18   37 1
  40   18   38 1
  41   19   39 1
  42   19   40 1
  43   19   41 1

#	End of record

#	Name: 9550113
#	Creating user name:	landrgr1
#	Creation time:	28. 01. 2015 13:52

#	Modifying user name:	landrgr1
#	Modification time:	28. 01. 2015 13:52

#	Program:	corina 3.48 0006  22.01.2010

@<TRIPOS>MOLECULE
9550113
  43   46    0    0    0
SMALL
NO_CHARGES


@<TRIPOS>ATOM
   1 S1            -0.0192     1.9943     1.5965 S.3     
   2 S2             5.6802    -3.6593     1.8643 S.3     
   3 O3             5.3989    -0.9590     1.3231 O.3     
   4 O4             4.3888     3.9369     0.1913 O.2     
   5 O5             2.8768    -5.6627     1.0810 O.3     
   6 N6             2.0668     0.7642     0.9687 N.pl3   
   7 N7             1.1181    -0.1734     1.3115 N.2     
   8 N8             2.4144     3.1354     0.8619 N.2     
   9 N9             3.6972    -0.6501    -0.0657 N.2     
  10 C10           -1.2243    -0.6444     2.0655 C.3     
  11 C11           -0.0573     0.2224     1.6683 C.2     
  12 C12           -0.8160    -2.1168     1.9871 C.3     
  13 C13            1.6696     2.0712     1.0886 C.2     
  14 C14            3.3599     0.4930     0.4779 C.2     
  15 C15            4.3027     1.6296     0.6362 C.2     
  16 C16           -2.0008    -2.9968     2.3904 C.3     
  17 C17            5.6631     1.4324     0.8580 C.2     
  18 C18            3.7138     2.9824     0.5452 C.2     
  19 C19            6.1490     0.1491     1.1228 C.2     
  20 C20            7.4883    -0.2119     1.2272 C.2     
  21 C21            6.2060    -2.0072     1.5501 C.2     
  22 C22            7.5166    -1.5759     1.4973 C.2     
  23 C23            3.8856    -3.4400     1.7766 C.3     
  24 C24            3.2055    -4.7622     2.0217 C.2     
  25 C25            2.8240    -5.2405     3.2197 C.2     
  26 C26            2.2311    -6.5027     2.9869 C.2     
  27 C27            2.2857    -6.7203     1.6606 C.2     
  28 H28           -1.5245    -0.4045     3.0855 H       
  29 H29           -2.0591    -0.4623     1.3887 H       
  30 H30           -0.5158    -2.3568     0.9671 H       
  31 H31            0.0188    -2.2989     2.6639 H       
  32 H32           -2.3010    -2.7569     3.4104 H       
  33 H33           -2.8356    -2.8148     1.7136 H       
  34 H34           -1.7099    -4.0458     2.3346 H       
  35 H35            6.3427     2.2711     0.8255 H       
  36 H36            8.3417     0.4411     1.1190 H       
  37 H37            8.3980    -2.1836     1.6391 H       
  38 H38            3.5698    -2.7229     2.5344 H       
  39 H39            3.6128    -3.0686     0.7888 H       
  40 H40            3.0421    -1.3611    -0.1458 H       
  41 H41            2.9476    -4.7540     4.1760 H       
  42 H42            1.8147    -7.1653     3.7312 H       
  43 H43            1.9167    -7.5967     1.1486 H       
@<TRIPOS>BOND
   1    1   11 1
   2    1   13 1
   3    2   21 1
   4    2   23 1
   5    3   19 1
   6    3   21 1
   7    4   18 2
   8    5   24 1
   9    5   27 1
  10    6    7 1
  11    6   13 1
  12    6   14 1
  13    7   11 2
  14    8   13 2
  15    8   18 1
  16    9   14 2
  17    9   40 1
  18   10   11 1
  19   10   12 1
  20   10   28 1
  21   10   29 1
  22   12   16 1
  23   12   30 1
  24   12   31 1
  25   14   15 1
  26   15   17 2
  27   15   18 1
  28   16   32 1
  29   16   33 1
  30   16   34 1
  31   17   19 1
  32   17   35 1
  33   19   20 2
  34   20   22 1
  35   20   36 1
  36   21   22 2
  37   22   37 1
  38   23   24 1
  39   23   38 1
  40   23   39 1
  41   24   25 2
  42   25   26 1
  43   25   41 1
  44   26   27 2
  45   26   42 1
  46   27   43 1

#	End of record

#	Name: 9550111
#	Creating user name:	landrgr1
#	Creation time:	28. 01. 2015 13:52

#	Modifying user name:	landrgr1
#	Modification time:	28. 01. 2015 13:52

#	Program:	corina 3.48 0006  22.01.2010

@<TRIPOS>MOLECULE
9550111
  44   46    0    0    0
SMALL
NO_CHARGES


@<TRIPOS>ATOM
   1 S1            -0.0172     1.4168     0.0098 S.o2    
   2 S2            -0.7884     3.4422     2.2624 S.3     
   3 O3             0.0021    -0.0041     0.0020 O.2     
   4 O4             1.1617     2.2101     0.0028 O.2     
   5 O5            -0.8384     5.5647    -3.1350 O.2     
   6 N6            -0.9002     1.8797    -1.3124 N.am    
   7 N7            -3.0029     6.0036    -2.9238 N.am    
   8 C8            -2.0742     3.9057    -1.9991 C.3     
   9 C9            -3.0535     3.0078    -2.7585 C.3     
  10 C10           -0.7128     3.2090    -1.9097 C.3     
  11 C11           -3.2322     1.6841    -2.0036 C.3     
  12 C12           -1.8816     0.9668    -1.9142 C.3     
  13 C13           -1.9263     5.2171    -2.7267 C.2     
  14 C14           -0.9297     1.8941     1.4396 C.2     
  15 C15           -2.8591     7.2784    -3.6312 C.3     
  16 C16           -1.8338     1.1371     2.0630 C.2     
  17 C17           -4.2008     7.9591    -3.7175 C.ar    
  18 C18           -2.4250     1.7252     3.1678 C.2     
  19 C19           -2.0010     2.9599     3.4417 C.2     
  20 C20           -4.6026     8.8243    -2.7170 C.ar    
  21 C21           -5.0274     7.7227    -4.8000 C.ar    
  22 C22           -5.8333     9.4487    -2.7962 C.ar    
  23 C23           -6.2582     8.3471    -4.8792 C.ar    
  24 C24           -6.6622     9.2082    -3.8761 C.ar    
  25 H25           -2.4527     4.0879    -0.9933 H       
  26 H26           -4.0161     3.5118    -2.8450 H       
  27 H27           -2.6605     2.8026    -3.7543 H       
  28 H28           -0.0409     3.7984    -1.2859 H       
  29 H29           -0.2896     3.1043    -2.9087 H       
  30 H30           -3.6006     1.8858    -0.9977 H       
  31 H31           -3.9479     1.0562    -2.5344 H       
  32 H32           -1.5517     0.6830    -2.9136 H       
  33 H33           -1.9810     0.0764    -1.2934 H       
  34 H34           -3.8729     5.7256    -2.5972 H       
  35 H35           -2.1615     7.9176    -3.0899 H       
  36 H36           -2.4792     7.0954    -4.6363 H       
  37 H37           -2.0857     0.1408     1.7307 H       
  38 H38           -3.1731     1.2226     3.7629 H       
  39 H39           -2.3488     3.5700     4.2622 H       
  40 H40           -3.9550     9.0122    -1.8734 H       
  41 H41           -4.7115     7.0504    -5.5839 H       
  42 H42           -6.1475    10.1241    -2.0142 H       
  43 H43           -6.9038     8.1626    -5.7250 H       
  44 H44           -7.6239     9.6957    -3.9378 H       
@<TRIPOS>BOND
   1    1    3 2
   2    1    4 2
   3    1    6 am
   4    1   14 1
   5    2   14 1
   6    2   19 1
   7    5   13 2
   8    6   10 1
   9    6   12 1
  10    7   13 am
  11    7   15 1
  12    7   34 1
  13    8    9 1
  14    8   10 1
  15    8   13 1
  16    8   25 1
  17    9   11 1
  18    9   26 1
  19    9   27 1
  20   10   28 1
  21   10   29 1
  22   11   12 1
  23   11   30 1
  24   11   31 1
  25   12   32 1
  26   12   33 1
  27   14   16 2
  28   15   17 1
  29   15   35 1
  30   15   36 1
  31   16   18 1
  32   16   37 1
  33   17   20 ar
  34   17   21 ar
  35   18   19 2
  36   18   38 1
  37   19   39 1
  38   20   22 ar
  39   20   40 1
  40   21   23 ar
  41   21   41 1
  42   22   24 ar
  43   22   42 1
  44   23   24 ar
  45   23   43 1
  46   24   44 1

#	End of record

#	Name: 9550078
#	Creating user name:	landrgr1
#	Creation time:	28. 01. 2015 13:52

#	Modifying user name:	landrgr1
#	Modification time:	28. 01. 2015 13:52

#	Program:	corina 3.48 0006  22.01.2010

@<TRIPOS>MOLECULE
9550078
  33   35    0    0    0
SMALL
NO_CHARGES


@<TRIPOS>ATOM
   1 O1             0.2386     1.1723     0.3228 O.3     
   2 O2             0.9728     5.3042    -0.2292 O.2     
   3 N3             2.3575     0.9306     0.7751 N.2     
   4 N4             3.1450     4.8455    -0.2762 N.am    
   5 N5             1.6750     3.0583     0.0064 N.2     
   6 N6             3.9622     2.6438     0.0730 N.pl3   
   7 C7             0.3968    -0.1054     0.7394 C.ar    
   8 C8             1.7610    -0.2637     1.0314 C.ar    
   9 C9            -0.4714    -1.1708     0.9080 C.ar    
  10 C10            2.2313    -1.4956     1.4899 C.ar    
  11 C11            1.4426     1.7764     0.3545 C.2     
  12 C12            2.3734     7.1644    -0.4146 C.ar    
  13 C13            0.0071    -2.3841     1.3623 C.ar    
  14 C14            1.3529    -2.5450     1.6518 C.ar    
  15 C15            2.1147     5.7139    -0.3007 C.2     
  16 C16            1.3084     8.0667    -0.4403 C.ar    
  17 C17            3.6842     7.6389    -0.4911 C.ar    
  18 C18            2.9114     3.5080    -0.0644 C.2     
  19 C19            1.5570     9.4194    -0.5462 C.ar    
  20 C20            3.9187     8.9942    -0.5968 C.ar    
  21 C21            2.8583     9.8826    -0.6270 C.ar    
  22 H22           -1.5216    -1.0531     0.6849 H       
  23 H23            3.2792    -1.6257     1.7164 H       
  24 H24           -0.6723    -3.2134     1.4929 H       
  25 H25            1.7155    -3.4986     2.0064 H       
  26 H26            0.2922     7.7064    -0.3777 H       
  27 H27            4.5127     6.9465    -0.4673 H       
  28 H28            4.0515     5.1646    -0.4081 H       
  29 H29            0.7341    10.1185    -0.5666 H       
  30 H30            4.9322     9.3626    -0.6560 H       
  31 H31            3.0475    10.9427    -0.7102 H       
  32 H32            4.7788     2.9380     0.5060 H       
  33 H33            3.8910     1.7365    -0.2627 H       
@<TRIPOS>BOND
   1    1    7 1
   2    1   11 1
   3    2   15 2
   4    3    8 1
   5    3   11 2
   6    4   15 am
   7    4   18 1
   8    4   28 1
   9    5   11 1
  10    5   18 2
  11    6   18 1
  12    6   32 1
  13    6   33 1
  14    7    8 ar
  15    7    9 ar
  16    8   10 ar
  17    9   13 ar
  18    9   22 1
  19   10   14 ar
  20   10   23 1
  21   12   15 1
  22   12   16 ar
  23   12   17 ar
  24   13   14 ar
  25   13   24 1
  26   14   25 1
  27   16   19 ar
  28   16   26 1
  29   17   20 ar
  30   17   27 1
  31   19   21 ar
  32   19   29 1
  33   20   21 ar
  34   20   30 1
  35   21   31 1

#	End of record

#	Name: 9550076
#	Creating user name:	landrgr1
#	Creation time:	28. 01. 2015 13:52

#	Modifying user name:	landrgr1
#	Modification time:	28. 01. 2015 13:52

#	Program:	corina 3.48 0006  22.01.2010

@<TRIPOS>MOLECULE
9550076
  42   42    0    0    0
SMALL
NO_CHARGES


@<TRIPOS>ATOM
   1 Cl1            2.8030    -1.0608     7.5367 Cl      
   2 O2             0.0530     1.5219    -0.1078 O.3     
   3 O3             0.2298     0.1474     2.4100 O.3     
   4 N4            -0.0698    -0.1164    -2.4365 N.3     
   5 N5            -1.5155    -0.5999    -4.8410 N.3     
   6 C6            -1.4047    -0.7298    -2.3988 C.3     
   7 C7             0.6343    -0.4702    -3.6769 C.3     
   8 C8            -2.2196    -0.2461    -3.6006 C.3     
   9 C9            -0.1806     0.0135    -4.8787 C.3     
  10 C10            0.7182    -0.4975    -1.2568 C.3     
  11 C11            0.0769     0.0970    -0.0013 C.3     
  12 C12           -2.3035    -0.2188    -6.0207 C.3     
  13 C13            0.8915    -0.3089     1.2285 C.3     
  14 C14            0.8262    -0.1331     3.5988 C.ar    
  15 C15            0.2384     0.2802     4.7853 C.ar    
  16 C16            2.0207    -0.8380     3.6272 C.ar    
  17 C17            0.8461    -0.0058     5.9925 C.ar    
  18 C18            2.6253    -1.1221     4.8364 C.ar    
  19 C19            2.0406    -0.7036     6.0185 C.ar    
  20 H20           -1.3076    -1.8148    -2.4382 H       
  21 H21           -1.9108    -0.4429    -1.4770 H       
  22 H22            1.6148     0.0059    -3.6870 H       
  23 H23            0.7546    -1.5522    -3.7309 H       
  24 H24           -2.3399     0.8359    -3.5467 H       
  25 H25           -3.2001    -0.7222    -3.5905 H       
  26 H26            0.3255    -0.2734    -5.8005 H       
  27 H27           -0.2777     1.0985    -4.8393 H       
  28 H28            0.7435    -1.5839    -1.1722 H       
  29 H29            1.7345    -0.1174    -1.3604 H       
  30 H30           -0.9420    -0.2770     0.0981 H       
  31 H31           -2.4749     0.8576    -6.0110 H       
  32 H32           -1.7593    -0.4919    -6.9249 H       
  33 H33           -3.2610    -0.7393    -6.0017 H       
  34 H34            1.8834     0.1394     1.1715 H       
  35 H35            0.9847    -1.3945     1.2605 H       
  36 H36            0.9276     1.9242    -0.1993 H       
  37 H37           -0.6936     0.8255     4.7654 H       
  38 H38            2.4774    -1.1648     2.7047 H       
  39 H39            0.3887     0.3158     6.9165 H       
  40 H40            3.5553    -1.6708     4.8589 H       
  41 Cl41           8.5553     6.9242    12.5367 Cl      
  42 H42            8.5553     8.2942    12.5367 H       
@<TRIPOS>BOND
   1    1   19 1
   2    2   11 1
   3    2   36 1
   4    3   13 1
   5    3   14 1
   6    4    6 1
   7    4    7 1
   8    4   10 1
   9    5    8 1
  10    5    9 1
  11    5   12 1
  12    6    8 1
  13    6   20 1
  14    6   21 1
  15    7    9 1
  16    7   22 1
  17    7   23 1
  18    8   24 1
  19    8   25 1
  20    9   26 1
  21    9   27 1
  22   10   11 1
  23   10   28 1
  24   10   29 1
  25   11   13 1
  26   11   30 1
  27   12   31 1
  28   12   32 1
  29   12   33 1
  30   13   34 1
  31   13   35 1
  32   14   15 ar
  33   14   16 ar
  34   15   17 ar
  35   15   37 1
  36   16   18 ar
  37   16   38 1
  38   17   19 ar
  39   17   39 1
  40   18   19 ar
  41   18   40 1
  42   41   42 1

#	End of record

#	Name: 9550072
#	Creating user name:	landrgr1
#	Creation time:	28. 01. 2015 13:52

#	Modifying user name:	landrgr1
#	Modification time:	28. 01. 2015 13:52

#	Program:	corina 3.48 0006  22.01.2010

@<TRIPOS>MOLECULE
9550072
  48   49    0    0    0
SMALL
NO_CHARGES


@<TRIPOS>ATOM
   1 Br1            0.0000     0.0000     0.0000 Br      
   2 O2             9.3517    10.3432     9.8403 O.3     
   3 N3            13.3581     8.4809    12.7031 N.4     
   4 C4            14.2464     8.0455    13.7964 C.3     
   5 C5            14.0378     8.2270    11.4149 C.3     
   6 C6            15.5450     7.5206    13.1488 C.3     
   7 C7            15.5478     8.2128    11.7604 C.3     
   8 C8            12.1006     7.7234    12.7564 C.3     
   9 C9            13.0748     9.9160    12.8381 C.3     
  10 C10           11.2173     8.1613    11.6633 C.1     
  11 C11           10.5128     8.5106    10.7916 C.1     
  12 C12            9.6294     8.9486     9.6986 C.3     
  13 C13            8.3395     8.1714     9.7532 C.ar    
  14 C14           10.3080     8.7034     8.3755 C.ar    
  15 C15            7.1290     8.8384     9.7254 C.ar    
  16 C16           10.9258     7.4915     8.1297 C.ar    
  17 C17            8.3666     6.7912     9.8254 C.ar    
  18 C18           10.3076     9.6884     7.4056 C.ar    
  19 C19            5.9457     8.1256     9.7756 C.ar    
  20 C20           11.5482     7.2666     6.9160 C.ar    
  21 C21            7.1833     6.0783     9.8755 C.ar    
  22 C22           10.9300     9.4635     6.1919 C.ar    
  23 C23            5.9729     6.7456     9.8531 C.ar    
  24 C24           11.5524     8.2535     5.9481 C.ar    
  25 H25           14.4721     8.8889    14.4490 H       
  26 H26           13.7687     7.2494    14.3675 H       
  27 H27           13.7324     7.2629    11.0083 H       
  28 H28           13.8182     9.0255    10.7062 H       
  29 H29           16.4155     7.8221    13.7315 H       
  30 H30           15.5101     6.4367    13.0390 H       
  31 H31           16.1092     7.6265    11.0329 H       
  32 H32           15.9419     9.2266    11.8303 H       
  33 H33           12.3125     6.6596    12.6483 H       
  34 H34           11.6099     7.9007    13.7133 H       
  35 H35           14.0083    10.4767    12.7906 H       
  36 H36           12.4181    10.2345    12.0286 H       
  37 H37           12.5878    10.1017    13.7954 H       
  38 H38           10.1381    10.9054     9.8144 H       
  39 H39            7.1078     9.9165     9.6649 H       
  40 H40           10.9225     6.7205     8.8859 H       
  41 H41            9.3122     6.2698     9.8423 H       
  42 H42            9.8208    10.6335     7.5959 H       
  43 H43            5.0000     8.6467     9.7546 H       
  44 H44           12.0315     6.3201     6.7242 H       
  45 H45            7.2045     5.0000     9.9316 H       
  46 H46           10.9294    10.2329     5.4340 H       
  47 H47            5.0484     6.1887     9.8926 H       
  48 H48           12.0390     8.0780     5.0000 H       
@<TRIPOS>BOND
   1    2   12 1
   2    2   38 1
   3    3    4 1
   4    3    5 1
   5    3    8 1
   6    3    9 1
   7    4    6 1
   8    4   25 1
   9    4   26 1
  10    5    7 1
  11    5   27 1
  12    5   28 1
  13    6    7 1
  14    6   29 1
  15    6   30 1
  16    7   31 1
  17    7   32 1
  18    8   10 1
  19    8   33 1
  20    8   34 1
  21    9   35 1
  22    9   36 1
  23    9   37 1
  24   10   11 3
  25   11   12 1
  26   12   13 1
  27   12   14 1
  28   13   15 ar
  29   13   17 ar
  30   14   16 ar
  31   14   18 ar
  32   15   19 ar
  33   15   39 1
  34   16   20 ar
  35   16   40 1
  36   17   21 ar
  37   17   41 1
  38   18   22 ar
  39   18   42 1
  40   19   23 ar
  41   19   43 1
  42   20   24 ar
  43   20   44 1
  44   21   23 ar
  45   21   45 1
  46   22   24 ar
  47   22   46 1
  48   23   47 1
  49   24   48 1

#	End of record

#	Name: 9550057
#	Creating user name:	landrgr1
#	Creation time:	28. 01. 2015 13:52

#	Modifying user name:	landrgr1
#	Modification time:	28. 01. 2015 13:52

#	Program:	corina 3.48 0006  22.01.2010

@<TRIPOS>MOLECULE
9550057
  55   56    0    0    0
SMALL
NO_CHARGES


@<TRIPOS>ATOM
   1 I1             0.0000     0.0000     0.0000 I       
   2 O2             6.0314     8.5280     5.9363 O.3     
   3 O3            12.4586     7.1716     9.4347 O.3     
   4 O4            12.8708     6.0667    11.3036 O.2     
   5 N5             8.1669     7.1092     7.1055 N.4     
   6 C6            14.6907     7.3162    10.4799 C.3     
   7 C7            15.4149     6.7568    11.7170 C.3     
   8 C8            14.6948     8.8521    10.6238 C.3     
   9 C9             8.9094     6.6064     8.2690 C.3     
  10 C10           15.8338     7.9723    12.5695 C.3     
  11 C11           14.8490     9.0905    12.1465 C.3     
  12 C12            6.7990     6.5728     7.1281 C.3     
  13 C13            8.1171     8.5769     7.1528 C.3     
  14 C14            8.8405     6.6812     5.8722 C.3     
  15 C15           10.3336     7.1650     8.2453 C.3     
  16 C16           15.4238     6.9132     9.2264 C.ar    
  17 C17           13.2735     6.8056    10.4365 C.2     
  18 C18            6.0275     7.0978     5.9148 C.3     
  19 C19            7.3431     9.0982     5.9394 C.3     
  20 C20           11.1071     6.6414     9.4572 C.3     
  21 C21           16.6916     7.4055     8.9786 C.ar    
  22 C22           14.8308     6.0468     8.3272 C.ar    
  23 C23           17.3640     7.0359     7.8288 C.ar    
  24 C24           15.5033     5.6772     7.1774 C.ar    
  25 C25           16.7689     6.1736     6.9270 C.ar    
  26 H26           14.7413     6.1160    12.2860 H       
  27 H27           16.2966     6.1939    11.4107 H       
  28 H28           15.5370     9.2837    10.0829 H       
  29 H29           13.7547     9.2714    10.2653 H       
  30 H30            8.4097     6.9243     9.1840 H       
  31 H31            8.9456     5.5176     8.2342 H       
  32 H32           15.7250     7.7496    13.6309 H       
  33 H33           16.8599     8.2618    12.3428 H       
  34 H34           15.2748    10.0746    12.3422 H       
  35 H35           13.8917     8.9746    12.6545 H       
  36 H36            6.8348     5.4839     7.0929 H       
  37 H37            6.2987     6.8911     8.0427 H       
  38 H38            7.6163     8.8945     8.0674 H       
  39 H39            9.1313     8.9759     7.1360 H       
  40 H40            8.8769     5.5924     5.8372 H       
  41 H41            8.2894     7.0543     5.0089 H       
  42 H42            9.8550     7.0794     5.8554 H       
  43 H43           10.8334     6.8471     7.3303 H       
  44 H44           10.2975     8.2539     8.2801 H       
  45 H45            5.0000     6.7360     5.9524 H       
  46 H46            6.5047     6.7462     5.0000 H       
  47 H47            7.8653     8.8151     5.0255 H       
  48 H48            7.2678    10.1842     5.9948 H       
  49 H49           11.1432     5.5526     9.4224 H       
  50 H50           10.6073     6.9593    10.3722 H       
  51 H51           17.1565     8.0792     9.6832 H       
  52 H52           13.8423     5.6584     8.5231 H       
  53 H53           18.3542     7.4211     7.6348 H       
  54 H54           15.0402     5.0000     6.4750 H       
  55 H55           17.2941     5.8851     6.0285 H       
@<TRIPOS>BOND
   1    2   18 1
   2    2   19 1
   3    3   17 1
   4    3   20 1
   5    4   17 2
   6    5    9 1
   7    5   12 1
   8    5   13 1
   9    5   14 1
  10    6    7 1
  11    6    8 1
  12    6   16 1
  13    6   17 1
  14    7   10 1
  15    7   26 1
  16    7   27 1
  17    8   11 1
  18    8   28 1
  19    8   29 1
  20    9   15 1
  21    9   30 1
  22    9   31 1
  23   10   11 1
  24   10   32 1
  25   10   33 1
  26   11   34 1
  27   11   35 1
  28   12   18 1
  29   12   36 1
  30   12   37 1
  31   13   19 1
  32   13   38 1
  33   13   39 1
  34   14   40 1
  35   14   41 1
  36   14   42 1
  37   15   20 1
  38   15   43 1
  39   15   44 1
  40   16   21 ar
  41   16   22 ar
  42   18   45 1
  43   18   46 1
  44   19   47 1
  45   19   48 1
  46   20   49 1
  47   20   50 1
  48   21   23 ar
  49   21   51 1
  50   22   24 ar
  51   22   52 1
  52   23   25 ar
  53   23   53 1
  54   24   25 ar
  55   24   54 1
  56   25   55 1

#	End of record

#	Name: 9550047
#	Creating user name:	landrgr1
#	Creation time:	28. 01. 2015 13:52

#	Modifying user name:	landrgr1
#	Modification time:	28. 01. 2015 13:52

#	Program:	corina 3.48 0006  22.01.2010

@<TRIPOS>MOLECULE
9550047
  40   41    0    0    0
SMALL
NO_CHARGES


@<TRIPOS>ATOM
   1 Cl1            0.0000     0.0000     0.0000 Cl      
   2 H2             0.0000     1.3700     0.0000 H       
   3 S3             7.0386    11.8091     8.3272 S.3     
   4 N4            10.6826    10.6125     7.2356 N.pl3   
   5 N5            12.6373    11.4843     6.7868 N.2     
   6 C6            11.5392     9.6054     6.9100 C.2     
   7 C7            11.2564     8.1263     6.8460 C.3     
   8 C8            12.3813     7.4525     6.0504 C.3     
   9 C9            13.7365     7.9077     6.5987 C.3     
  10 C10           13.9674     9.3798     6.2374 C.3     
  11 C11           12.7429    10.1670     6.6375 C.2     
  12 C12           11.3944    11.7819     7.1502 C.2     
  13 C13            9.3625    10.6323     7.5923 C.2     
  14 C14            7.0811    12.3665    10.0529 C.3     
  15 C15            8.7403    11.8042     7.8702 C.2     
  16 C16           10.7619    13.0085     7.4336 C.2     
  17 C17            9.4514    13.0189     7.7940 C.2     
  18 C18            7.5761    13.8131    10.1096 C.3     
  19 C19            5.6748    12.2849    10.6500 C.3     
  20 C20            8.0283    11.4715    10.8547 C.3     
  21 H21           11.2230     7.7149     7.8549 H       
  22 H22           10.3018     7.9562     6.3480 H       
  23 H23           12.2958     6.3700     6.1456 H       
  24 H24           12.3017     7.7325     5.0000 H       
  25 H25           13.7464     7.7940     7.6827 H       
  26 H26           14.5280     7.2983     6.1626 H       
  27 H27           14.8378     9.7572     6.7741 H       
  28 H28           14.1290     9.4731     5.1635 H       
  29 H29            8.8105     9.7060     7.6529 H       
  30 H30           11.3152    13.9337     7.3678 H       
  31 H31            8.9561    13.9530     8.0142 H       
  32 H32            6.9751    14.4292     9.4408 H       
  33 H33            7.4855    14.1884    11.1290 H       
  34 H34            8.6203    13.8522     9.7995 H       
  35 H35            5.3221    11.2543    10.6097 H       
  36 H36            5.7004    12.6198    11.6870 H       
  37 H37            5.0000    12.9225    10.0789 H       
  38 H38            9.0475    11.6038    10.4916 H       
  39 H39            7.9800    11.7439    11.9090 H       
  40 H40            7.7321    10.4294    10.7347 H       
@<TRIPOS>BOND
   1    1    2 1
   2    3   14 1
   3    3   15 1
   4    4    6 1
   5    4   12 1
   6    4   13 1
   7    5   11 1
   8    5   12 2
   9    6    7 1
  10    6   11 2
  11    7    8 1
  12    7   21 1
  13    7   22 1
  14    8    9 1
  15    8   23 1
  16    8   24 1
  17    9   10 1
  18    9   25 1
  19    9   26 1
  20   10   11 1
  21   10   27 1
  22   10   28 1
  23   12   16 1
  24   13   15 2
  25   13   29 1
  26   14   18 1
  27   14   19 1
  28   14   20 1
  29   15   17 1
  30   16   17 2
  31   16   30 1
  32   17   31 1
  33   18   32 1
  34   18   33 1
  35   18   34 1
  36   19   35 1
  37   19   36 1
  38   19   37 1
  39   20   38 1
  40   20   39 1
  41   20   40 1

#	End of record

#	Name: 9550043
#	Creating user name:	landrgr1
#	Creation time:	28. 01. 2015 13:52

#	Modifying user name:	landrgr1
#	Modification time:	28. 01. 2015 13:52

#	Program:	corina 3.48 0006  22.01.2010

@<TRIPOS>MOLECULE
9550043
  38   39    0    0    0
SMALL
NO_CHARGES


@<TRIPOS>ATOM
   1 Cl1            0.0000     0.0000     0.0000 Cl      
   2 O2             8.4037     8.7512     7.5387 O.2     
   3 N3             9.4963    10.6824     7.4570 N.am    
   4 N4            10.5102     8.6719     6.8413 N.am    
   5 N5            11.8204     7.0467     6.2702 N.pl3   
   6 C6             9.4325     9.3468     7.2881 C.2     
   7 C7            10.7187    11.3492     7.3096 C.ar    
   8 C8             8.3390    11.4040     7.7741 C.ar    
   9 C9            10.6371     7.3183     6.7445 C.cat   
  10 C10           11.6888     9.2176     6.3907 C.2     
  11 C11           12.4854     8.1909     6.0447 C.2     
  12 C12           10.9476    12.1442     6.1942 C.ar    
  13 C13            7.1020    10.7729     7.7681 C.ar    
  14 C14           11.7025    11.2214     8.2814 C.ar    
  15 C15            8.4265    12.7509     8.1009 C.ar    
  16 C16           12.3424     5.7012     6.0184 C.3     
  17 C17           12.1544    12.8005     6.0518 C.ar    
  18 C18            5.9623    11.4875     8.0813 C.ar    
  19 C19           12.9072    11.8804     8.1330 C.ar    
  20 C20            7.2831    13.4599     8.4132 C.ar    
  21 C21           13.1344    12.6663     7.0182 C.ar    
  22 C22            6.0521    12.8300     8.4002 C.ar    
  23 H23            9.8842     6.5930     7.0155 H       
  24 H24           11.9287    10.2687     6.3265 H       
  25 H25           13.4883     8.2728     5.6524 H       
  26 H26           10.1829    12.2488     5.4388 H       
  27 H27            7.0311     9.7246     7.5183 H       
  28 H28           11.5257    10.6078     9.1523 H       
  29 H29            9.3876    13.2433     8.1112 H       
  30 H30           12.0963     5.4006     5.0000 H       
  31 H31           13.4250     5.7018     6.1454 H       
  32 H32           11.8944     5.0000     6.7225 H       
  33 H33           12.3331    13.4189     5.1846 H       
  34 H34            5.0000    10.9973     8.0767 H       
  35 H35           13.6727    11.7814     8.8884 H       
  36 H36            7.3505    14.5073     8.6674 H       
  37 H37           14.0775    13.1800     6.9041 H       
  38 H38            5.1593    13.3868     8.6441 H       
@<TRIPOS>BOND
   1    2    6 2
   2    3    6 am
   3    3    7 1
   4    3    8 1
   5    4    6 am
   6    4    9 1
   7    4   10 1
   8    5    9 ar
   9    5   11 1
  10    5   16 1
  11    7   12 ar
  12    7   14 ar
  13    8   13 ar
  14    8   15 ar
  15    9   23 1
  16   10   11 2
  17   10   24 1
  18   11   25 1
  19   12   17 ar
  20   12   26 1
  21   13   18 ar
  22   13   27 1
  23   14   19 ar
  24   14   28 1
  25   15   20 ar
  26   15   29 1
  27   16   30 1
  28   16   31 1
  29   16   32 1
  30   17   21 ar
  31   17   33 1
  32   18   22 ar
  33   18   34 1
  34   19   21 ar
  35   19   35 1
  36   20   22 ar
  37   20   36 1
  38   21   37 1
  39   22   38 1

#	End of record

#	Name: 9550002
#	Creating user name:	landrgr1
#	Creation time:	28. 01. 2015 13:52

#	Modifying user name:	landrgr1
#	Modification time:	28. 01. 2015 13:52

#	Program:	corina 3.48 0006  22.01.2010

@<TRIPOS>MOLECULE
9550002
  63   67    0    0    0
SMALL
NO_CHARGES


@<TRIPOS>ATOM
   1 O1            -3.5353    -4.6157     3.1143 O.2     
   2 O2            -4.7913    -1.9509    -1.7050 O.2     
   3 O3             0.5816     0.0568     0.2266 O.3     
   4 O4             0.8180    -0.6684     2.3112 O.2     
   5 N5            -3.3271    -1.4790    -0.1032 N.am    
   6 N6            -3.9717    -3.3090     1.3134 N.am    
   7 C7            -3.5963    -1.1392     2.2731 C.3     
   8 C8            -4.1630    -1.8824     1.0331 C.3     
   9 C9            -2.1032    -0.9614     1.9288 C.3     
  10 C10           -2.0612    -0.9286     0.3923 C.3     
  11 C11           -3.7273    -2.2170     3.3723 C.3     
  12 C12           -4.3124     0.1754     2.5892 C.3     
  13 C13           -3.7275    -3.5267     2.6164 C.2     
  14 C14           -0.9113    -1.7662    -0.1047 C.ar    
  15 C15           -3.6675    -1.6007    -1.4016 C.2     
  16 C16            0.3660    -1.2272    -0.1633 C.ar    
  17 C17           -1.1268    -3.0729    -0.4970 C.ar    
  18 C18           -2.6742    -1.3082    -2.4568 C.ar    
  19 C19            1.4225    -2.0010    -0.6208 C.ar    
  20 C20           -0.0719    -3.8422    -0.9528 C.ar    
  21 C21           -2.8902    -1.7474    -3.7641 C.ar    
  22 C22           -1.5192    -0.5868    -2.1515 C.ar    
  23 C23            1.2007    -3.3059    -1.0170 C.ar    
  24 C24           -1.9597    -1.4708    -4.7440 C.ar    
  25 C25           -0.5963    -0.3168    -3.1410 C.ar    
  26 C26           -0.8140    -0.7595    -4.4335 C.ar    
  27 C27            0.7975     0.2694     1.5393 C.2     
  28 C28           -2.1910    -1.9446    -6.1558 C.3     
  29 C29            1.0094     1.6428     2.0400 C.ar    
  30 C30            1.2335     1.8668     3.4001 C.ar    
  31 C31            0.9922     2.7223     1.1548 C.ar    
  32 C32            1.4311     3.1517     3.8608 C.ar    
  33 C33            1.1913     4.0025     1.6292 C.ar    
  34 C34            1.4071     4.2177     2.9787 C.ar    
  35 C35            1.6731     3.3954     5.3282 C.3     
  36 H36           -5.2130    -1.6478     0.8584 H       
  37 H37           -1.7274    -0.0242     2.3394 H       
  38 H38           -1.5230    -1.8030     2.3070 H       
  39 H39           -1.9458     0.0992     0.0481 H       
  40 H40           -2.8780    -2.1708     4.0540 H       
  41 H41           -4.6624    -2.0923     3.9184 H       
  42 H42           -5.3660    -0.0230     2.7858 H       
  43 H43           -3.8589     0.6340     3.4678 H       
  44 H44           -4.2225     0.8516     1.7390 H       
  45 H45           -4.0163    -4.0079     0.6423 H       
  46 H46           -2.1200    -3.4943    -0.4474 H       
  47 H47            2.4176    -1.5837    -0.6677 H       
  48 H48           -0.2424    -4.8638    -1.2587 H       
  49 H49           -3.7838    -2.3029    -4.0077 H       
  50 H50           -1.3483    -0.2403    -1.1429 H       
  51 H51            2.0229    -3.9088    -1.3733 H       
  52 H52            0.2979     0.2414    -2.9061 H       
  53 H53           -0.0885    -0.5455    -5.2044 H       
  54 H54           -2.7344    -1.1801    -6.7112 H       
  55 H55           -1.2315    -2.1311    -6.6382 H       
  56 H56           -2.7743    -2.8652    -6.1391 H       
  57 H57            1.2518     1.0358     4.0897 H       
  58 H58            0.8239     2.5557     0.1011 H       
  59 H59            1.1786     4.8384     0.9455 H       
  60 H60            1.5620     5.2219     3.3448 H       
  61 H61            2.7430     3.3523     5.5320 H       
  62 H62            1.2904     4.3788     5.6011 H       
  63 H63            1.1608     2.6311     5.9127 H       
@<TRIPOS>BOND
   1    1   13 2
   2    2   15 2
   3    3   16 1
   4    3   27 1
   5    4   27 2
   6    5    8 1
   7    5   10 1
   8    5   15 am
   9    6    8 1
  10    6   13 am
  11    6   45 1
  12    7    8 1
  13    7    9 1
  14    7   11 1
  15    7   12 1
  16    8   36 1
  17    9   10 1
  18    9   37 1
  19    9   38 1
  20   10   14 1
  21   10   39 1
  22   11   13 1
  23   11   40 1
  24   11   41 1
  25   12   42 1
  26   12   43 1
  27   12   44 1
  28   14   16 ar
  29   14   17 ar
  30   15   18 1
  31   16   19 ar
  32   17   20 ar
  33   17   46 1
  34   18   21 ar
  35   18   22 ar
  36   19   23 ar
  37   19   47 1
  38   20   23 ar
  39   20   48 1
  40   21   24 ar
  41   21   49 1
  42   22   25 ar
  43   22   50 1
  44   23   51 1
  45   24   26 ar
  46   24   28 1
  47   25   26 ar
  48   25   52 1
  49   26   53 1
  50   27   29 1
  51   28   54 1
  52   28   55 1
  53   28   56 1
  54   29   30 ar
  55   29   31 ar
  56   30   32 ar
  57   30   57 1
  58   31   33 ar
  59   31   58 1
  60   32   34 ar
  61   32   35 1
  62   33   34 ar
  63   33   59 1
  64   34   60 1
  65   35   61 1
  66   35   62 1
  67   35   63 1

#	End of record

#	Name: 9549995
#	Creating user name:	landrgr1
#	Creation time:	28. 01. 2015 13:52

#	Modifying user name:	landrgr1
#	Modification time:	28. 01. 2015 13:52

#	Program:	corina 3.48 0006  22.01.2010

@<TRIPOS>MOLECULE
9549995
  60   63    0    0    0
SMALL
NO_CHARGES


@<TRIPOS>ATOM
   1 O1             0.2231     1.9789     0.4722 O.3     
   2 O2            -2.5313    -1.4801     0.3985 O.2     
   3 O3            -5.1044    -0.3141    -0.2478 O.2     
   4 O4            -6.0635     1.9089    -1.6129 O.3     
   5 O5            -1.9187     4.5467     2.0518 O.3     
   6 O6            -0.4772     6.2581     0.4453 O.3     
   7 O7            -3.2935     6.0951    -5.5554 O.3     
   8 N8            -1.7150     0.2273    -0.8536 N.am    
   9 C9             0.2613     0.5492     0.5508 C.3     
  10 C10           -0.2819    -0.0565    -0.7450 C.3     
  11 C11            1.7347     0.1318     0.7467 C.3     
  12 C12           -2.3088     1.3373    -1.6044 C.3     
  13 C13            2.3725     1.4300     1.3122 C.3     
  14 C14            1.5545     2.5108     0.5615 C.3     
  15 C15           -3.8057     1.2268    -1.4283 C.2     
  16 C16           -2.6982    -0.4912    -0.2857 C.2     
  17 C17           -1.8202     2.6524    -1.0541 C.ar    
  18 C18           -4.0213     0.1040    -0.6157 C.2     
  19 C19           -4.7679     2.0634    -1.9602 C.2     
  20 C20           -2.0962     2.9971     0.2559 C.ar    
  21 C21           -1.0921     3.5089    -1.8588 C.ar    
  22 C22           -4.3809     3.1224    -2.9049 C.ar    
  23 C23           -1.6477     4.2059     0.7634 C.ar    
  24 C24           -0.6416     4.7164    -1.3587 C.ar    
  25 C25           -0.9196     5.0706    -0.0482 C.ar    
  26 C26           -3.5362     2.8285    -3.9822 C.ar    
  27 C27           -4.8606     4.4266    -2.7331 C.ar    
  28 C28           -3.1771     3.8228    -4.8631 C.ar    
  29 C29           -4.4956     5.4138    -3.6196 C.ar    
  30 C30           -3.6513     5.1180    -4.6845 C.ar    
  31 C31           -2.7683     3.6668     2.7906 C.3     
  32 C32            0.2637     7.0950    -0.4450 C.3     
  33 C33           -3.7200     7.4244    -5.2499 C.3     
  34 H34           -0.3363     0.2092     1.3966 H       
  35 H35           -0.1247    -1.1351    -0.7357 H       
  36 H36            0.2404     0.3794    -1.5967 H       
  37 H37            1.8145    -0.6843     1.4648 H       
  38 H38            2.1902    -0.1415    -0.2051 H       
  39 H39           -2.0501     1.2546    -2.6600 H       
  40 H40            2.2247     1.5033     2.3896 H       
  41 H41            3.4306     1.4910     1.0577 H       
  42 H42            1.9652     2.6718    -0.4353 H       
  43 H43            1.5522     3.4434     1.1257 H       
  44 H44           -2.6618     2.3244     0.8836 H       
  45 H45           -0.8744     3.2339    -2.8802 H       
  46 H46           -0.0726     5.3835    -1.9893 H       
  47 H47           -6.6620     2.5400    -2.0357 H       
  48 H48           -3.1668     1.8232    -4.1213 H       
  49 H49           -5.5163     4.6573    -1.9065 H       
  50 H50           -2.5256     3.5971    -5.6943 H       
  51 H51           -4.8653     6.4200    -3.4882 H       
  52 H52           -3.7051     3.5281     2.2510 H       
  53 H53           -2.2740     2.7032     2.9140 H       
  54 H54           -2.9737     4.0978     3.7705 H       
  55 H55            0.5559     8.0082     0.0735 H       
  56 H56            1.1560     6.5671    -0.7818 H       
  57 H57           -0.3554     7.3479    -1.3057 H       
  58 H58           -3.2953     8.1180    -5.9757 H       
  59 H59           -4.8079     7.4756    -5.2919 H       
  60 H60           -3.3819     7.6935    -4.2492 H       
@<TRIPOS>BOND
   1    1    9 1
   2    1   14 1
   3    2   16 2
   4    3   18 2
   5    4   19 1
   6    4   47 1
   7    5   23 1
   8    5   31 1
   9    6   25 1
  10    6   32 1
  11    7   30 1
  12    7   33 1
  13    8   10 1
  14    8   12 1
  15    8   16 am
  16    9   10 1
  17    9   11 1
  18    9   34 1
  19   10   35 1
  20   10   36 1
  21   11   13 1
  22   11   37 1
  23   11   38 1
  24   12   15 1
  25   12   17 1
  26   12   39 1
  27   13   14 1
  28   13   40 1
  29   13   41 1
  30   14   42 1
  31   14   43 1
  32   15   18 1
  33   15   19 2
  34   16   18 1
  35   17   20 ar
  36   17   21 ar
  37   19   22 1
  38   20   23 ar
  39   20   44 1
  40   21   24 ar
  41   21   45 1
  42   22   26 ar
  43   22   27 ar
  44   23   25 ar
  45   24   25 ar
  46   24   46 1
  47   26   28 ar
  48   26   48 1
  49   27   29 ar
  50   27   49 1
  51   28   30 ar
  52   28   50 1
  53   29   30 ar
  54   29   51 1
  55   31   52 1
  56   31   53 1
  57   31   54 1
  58   32   55 1
  59   32   56 1
  60   32   57 1
  61   33   58 1
  62   33   59 1
  63   33   60 1

#	End of record

#	Name: 9549994
#	Creating user name:	landrgr1
#	Creation time:	28. 01. 2015 13:52

#	Modifying user name:	landrgr1
#	Modification time:	28. 01. 2015 13:52

#	Program:	corina 3.48 0006  22.01.2010

@<TRIPOS>MOLECULE
9549994
  49   49    0    0    0
SMALL
NO_CHARGES


@<TRIPOS>ATOM
   1 Cl1            0.0000     0.0000     0.0000 Cl      
   2 H2             0.0000     1.3700     0.0000 H       
   3 O3             6.0029     9.7289    15.6749 O.3     
   4 O4            11.6057     9.6948     9.1893 O.3     
   5 O5            13.0026     8.7245     7.0221 O.3     
   6 N6             8.1217     8.3859    14.4122 N.3     
   7 N7            10.9628     8.2069    11.9902 N.3     
   8 C8             6.7688     7.8108    14.4227 C.3     
   9 C9             8.0635     9.8548    14.4213 C.3     
  10 C10            8.8928     7.8967    13.2615 C.3     
  11 C11            6.0223     8.2989    15.6671 C.3     
  12 C12            7.3041    10.3224    15.6657 C.3     
  13 C13           10.1918     8.6960    13.1410 C.3     
  14 C14           12.2196     8.9530    11.8431 C.3     
  15 C15           12.9816     8.4243    10.6553 C.ar    
  16 C16           12.6342     8.8249     9.3755 C.ar    
  17 C17           14.0311     7.5437    10.8432 C.ar    
  18 C18           13.3401     8.3346     8.2805 C.ar    
  19 C19           14.7322     7.0573     9.7560 C.ar    
  20 C20           14.3867     7.4483     8.4754 C.ar    
  21 C21           11.9263    11.0874     9.1862 C.3     
  22 C22           10.6513    11.9038     8.9650 C.3     
  23 C23           13.7706     8.1810     5.9466 C.3     
  24 H24            6.2318     8.1275    13.5285 H       
  25 H25            6.8357     6.7231    14.4417 H       
  26 H26            9.0756    10.2591    14.4393 H       
  27 H27            7.5472    10.2042    13.5271 H       
  28 H28            9.1272     6.8417    13.4032 H       
  29 H29            8.3050     8.0193    12.3517 H       
  30 H30            6.5297     7.9369    16.5612 H       
  31 H31            5.0000     7.9211    15.6498 H       
  32 H32            7.2088    11.4081    15.6474 H       
  33 H33            7.8488    10.0192    16.5598 H       
  34 H34           10.7795     8.5735    14.0507 H       
  35 H35            9.9573     9.7511    12.9992 H       
  36 H36           11.1373     7.2160    12.0668 H       
  37 H37           11.9993    10.0098    11.6924 H       
  38 H38           12.8214     8.8322    12.7438 H       
  39 H39           14.3037     7.2357    11.8418 H       
  40 H40           15.5515     6.3700     9.9069 H       
  41 H41           14.9359     7.0665     7.6275 H       
  42 H42           12.3708    11.3600    10.1434 H       
  43 H43           12.6346    11.2954     8.3843 H       
  44 H44           10.8959    12.9660     8.9627 H       
  45 H45           10.2068    11.6312     8.0078 H       
  46 H46            9.9430    11.6958     9.7670 H       
  47 H47           13.6826     7.0945     5.9501 H       
  48 H48           13.3982     8.5726     5.0000 H       
  49 H49           14.8168     8.4611     6.0693 H       
@<TRIPOS>BOND
   1    1    2 1
   2    3   11 1
   3    3   12 1
   4    4   16 1
   5    4   21 1
   6    5   18 1
   7    5   23 1
   8    6    8 1
   9    6    9 1
  10    6   10 1
  11    7   13 1
  12    7   14 1
  13    7   36 1
  14    8   11 1
  15    8   24 1
  16    8   25 1
  17    9   12 1
  18    9   26 1
  19    9   27 1
  20   10   13 1
  21   10   28 1
  22   10   29 1
  23   11   30 1
  24   11   31 1
  25   12   32 1
  26   12   33 1
  27   13   34 1
  28   13   35 1
  29   14   15 1
  30   14   37 1
  31   14   38 1
  32   15   16 ar
  33   15   17 ar
  34   16   18 ar
  35   17   19 ar
  36   17   39 1
  37   18   20 ar
  38   19   20 ar
  39   19   40 1
  40   20   41 1
  41   21   22 1
  42   21   42 1
  43   21   43 1
  44   22   44 1
  45   22   45 1
  46   22   46 1
  47   23   47 1
  48   23   48 1
  49   23   49 1

#	End of record

#	Name: 9549949
#	Creating user name:	landrgr1
#	Creation time:	28. 01. 2015 13:52

#	Modifying user name:	landrgr1
#	Modification time:	28. 01. 2015 13:52

#	Program:	corina 3.48 0006  22.01.2010

@<TRIPOS>MOLECULE
9549949
  77   78    0    0    0
SMALL
NO_CHARGES


@<TRIPOS>ATOM
   1 I1            -9.9122    -2.4632     1.8970 I       
   2 O2            -3.2816    -2.0539    -1.0382 O.2     
   3 O3            -1.2306     0.2746     4.3438 O.2     
   4 O4            -2.5035     1.2451     1.1456 O.2     
   5 O5            -0.0173     1.4248     0.0099 O.3     
   6 O6            -5.2648    -0.7123    -0.6910 O.2     
   7 O7            -2.5404     0.4049     7.3969 O.2     
   8 O8            -2.8407     5.7728     5.1572 O.3     
   9 O9            -2.0129     4.0304     4.0791 O.2     
  10 O10           -9.3117    -3.5023    -4.6014 O.2     
  11 O11          -10.9347    -3.9883    -3.3444 O.2     
  12 N12           -2.5220    -0.7099     2.2312 N.am    
  13 N13           -2.1202    -0.1464    -1.2450 N.am    
  14 N14           -5.1747    -1.4124    -2.8113 N.am    
  15 N15           -7.0740    -1.3608     0.9441 N.3     
  16 N16           -2.8570     1.5918     5.0797 N.am    
  17 N17           -1.1262     1.8373     8.3298 N.am    
  18 N18           -9.8232    -3.5139    -3.4961 N.pl3   
  19 C19           -3.3175    -0.0548     3.2922 C.3     
  20 C20           -4.1510    -1.1163     4.0134 C.3     
  21 C21           -5.6135    -1.0087     3.5742 C.3     
  22 C22           -3.8634    -0.7290    -2.9090 C.3     
  23 C23           -4.0769     0.7815    -3.0259 C.3     
  24 C24           -6.0542    -2.3347     2.9510 C.3     
  25 C25           -1.4333    -0.5336     0.0129 C.3     
  26 C26           -7.3489    -2.1324     2.1634 C.3     
  27 C27           -3.0745    -1.0351    -1.6627 C.2     
  28 C28           -2.3927     0.6148     4.2757 C.2     
  29 C29           -2.1913     0.0734     1.1658 C.2     
  30 C30           -4.9015     1.0846    -4.2785 C.3     
  31 C31           -4.8223     1.2884    -1.7897 C.3     
  32 C32            0.0021    -0.0041     0.0020 C.3     
  33 C33           -7.7447    -1.8895    -0.1523 C.ar    
  34 C34           -7.1485    -1.8781    -1.4213 C.ar    
  35 C35           -1.9580     2.2428     6.0358 C.3     
  36 C36           -5.8075    -1.2964    -1.6092 C.2     
  37 C37           -2.4819     3.6443     6.3557 C.3     
  38 C38           -9.0125    -2.4382     0.0052 C.ar    
  39 C39           -7.8371    -2.4159    -2.5122 C.ar    
  40 C40           -1.8966     1.4284     7.3023 C.2     
  41 C41           -9.0940    -2.9516    -2.3372 C.ar    
  42 C42           -9.6795    -2.9656    -1.0803 C.ar    
  43 C43           -2.4278     4.4963     5.1138 C.2     
  44 H44           -3.9790     0.6880     2.8465 H       
  45 H45           -3.7697    -2.1070     3.7657 H       
  46 H46           -4.0832    -0.9610     5.0902 H       
  47 H47           -6.2380    -0.7884     4.4400 H       
  48 H48           -5.7148    -0.2100     2.8394 H       
  49 H49           -3.3243    -1.0924    -3.7839 H       
  50 H50           -3.1105     1.2806    -3.0975 H       
  51 H51           -5.2749    -2.6965     2.2802 H       
  52 H52           -6.2208    -3.0682     3.7399 H       
  53 H53           -1.4251    -1.6194     0.1086 H       
  54 H54           -2.2490    -1.6387     2.2917 H       
  55 H55           -8.0674    -1.5921     2.7798 H       
  56 H56           -7.7635    -3.1033     1.8920 H       
  57 H57           -1.9110     0.6674    -1.7298 H       
  58 H58           -5.5570    -1.9082    -3.5522 H       
  59 H59           -5.8679     0.5855    -4.2069 H       
  60 H60           -5.0536     2.1607    -4.3618 H       
  61 H61           -4.3705     0.7234    -5.1593 H       
  62 H62           -4.2349     1.0725    -0.8973 H       
  63 H63           -4.9744     2.3645    -1.8730 H       
  64 H64           -5.7887     0.7894    -1.7180 H       
  65 H65           -7.3035    -0.3868     1.0731 H       
  66 H66            0.5123    -0.3556    -0.8948 H       
  67 H67            0.5293    -0.3651     0.8851 H       
  68 H68           -3.7865     1.8639     5.0253 H       
  69 H69           -0.9603     2.3178     5.6033 H       
  70 H70           -3.5122     3.5761     6.7049 H       
  71 H71           -1.8640     4.0947     7.1325 H       
  72 H72           -7.3838    -2.4111    -3.4925 H       
  73 H73          -10.6632    -3.3922    -0.9508 H       
  74 H74            0.8606     1.8301     0.0037 H       
  75 H75           -1.0866     1.3131     9.1450 H       
  76 H76           -0.6113     2.6559     8.2541 H       
  77 H77           -2.7870     6.2797     4.3355 H       
@<TRIPOS>BOND
   1    1   38 1
   2    2   27 2
   3    3   28 2
   4    4   29 2
   5    5   32 1
   6    5   74 1
   7    6   36 2
   8    7   40 2
   9    8   43 1
  10    8   77 1
  11    9   43 2
  12   10   18 2
  13   11   18 2
  14   12   19 1
  15   12   29 am
  16   12   54 1
  17   13   25 1
  18   13   27 am
  19   13   57 1
  20   14   22 1
  21   14   36 am
  22   14   58 1
  23   15   26 1
  24   15   33 1
  25   15   65 1
  26   16   28 am
  27   16   35 1
  28   16   68 1
  29   17   40 am
  30   17   75 1
  31   17   76 1
  32   18   41 1
  33   19   20 1
  34   19   28 1
  35   19   44 1
  36   20   21 1
  37   20   45 1
  38   20   46 1
  39   21   24 1
  40   21   47 1
  41   21   48 1
  42   22   23 1
  43   22   27 1
  44   22   49 1
  45   23   30 1
  46   23   31 1
  47   23   50 1
  48   24   26 1
  49   24   51 1
  50   24   52 1
  51   25   29 1
  52   25   32 1
  53   25   53 1
  54   26   55 1
  55   26   56 1
  56   30   59 1
  57   30   60 1
  58   30   61 1
  59   31   62 1
  60   31   63 1
  61   31   64 1
  62   32   66 1
  63   32   67 1
  64   33   34 ar
  65   33   38 ar
  66   34   36 1
  67   34   39 ar
  68   35   37 1
  69   35   40 1
  70   35   69 1
  71   37   43 1
  72   37   70 1
  73   37   71 1
  74   38   42 ar
  75   39   41 ar
  76   39   72 1
  77   41   42 ar
  78   42   73 1

#	End of record

#	Name: 9549921
#	Creating user name:	landrgr1
#	Creation time:	28. 01. 2015 13:52

#	Modifying user name:	landrgr1
#	Modification time:	28. 01. 2015 13:52

#	Program:	corina 3.48 0006  22.01.2010

@<TRIPOS>MOLECULE
9549921
  52   53    0    0    0
SMALL
NO_CHARGES


@<TRIPOS>ATOM
   1 I1             6.1234     5.1778    -2.5784 I       
   2 O2            -0.0173     1.4248     0.0099 O.3     
   3 O3             0.7023     0.0596    -3.5456 O.2     
   4 O4             1.5889     1.9245    -2.0431 O.2     
   5 O5            -1.8699     3.5124    -2.2879 O.2     
   6 O6            -1.0005     5.6178    -5.0303 O.2     
   7 O7             6.4962    -0.2414     1.1856 O.2     
   8 O8             7.9716     1.2324     0.8667 O.2     
   9 N9             2.1385    -0.0847    -1.2045 N.am    
  10 N10            3.3697     3.5905    -2.7864 N.3     
  11 N11           -0.0397     3.5975    -3.5831 N.am    
  12 N12           -1.1618     0.6312    -2.4400 N.am    
  13 N13           -0.8744     7.1769    -3.4570 N.am    
  14 N14            6.8537     0.7964     0.6577 N.pl3   
  15 C15            0.7179    -0.4973    -1.2562 C.3     
  16 C16            1.6853     5.3013    -3.2358 C.3     
  17 C17            0.1974     4.9745    -3.0991 C.3     
  18 C18            2.4856     4.5607    -2.1602 C.3     
  19 C19            0.0021    -0.0041     0.0020 C.3     
  20 C20            4.2074     2.9088    -1.9353 C.ar    
  21 C21            0.0847     0.0718    -2.4962 C.2     
  22 C22            3.7910     1.7182    -1.3171 C.ar    
  23 C23            2.4283     1.2001    -1.5485 C.2     
  24 C24           -1.4558     1.5663    -3.5604 C.3     
  25 C25            0.7421    -0.5109     1.2415 C.3     
  26 C26           -0.6024     5.9455    -3.9325 C.2     
  27 C27           -1.1443     2.9662    -3.0917 C.2     
  28 C28            5.4872     3.3961    -1.6779 C.ar    
  29 C29            4.6660     1.0318    -0.4719 C.ar    
  30 C30            5.9296     1.5276    -0.2377 C.ar    
  31 C31            6.3369     2.7092    -0.8365 C.ar    
  32 H32            0.6655    -1.5899    -1.2933 H       
  33 H33            2.0354     4.9961    -4.2220 H       
  34 H34            1.8324     6.3755    -3.1181 H       
  35 H35           -0.1023     5.0577    -2.0554 H       
  36 H36            1.7945     4.0630    -1.4779 H       
  37 H37            3.0720     5.2887    -1.5923 H       
  38 H38           -1.0205    -0.3814     0.0098 H       
  39 H39            2.8359    -0.7107    -0.9382 H       
  40 H40            3.0766     3.1562    -3.6107 H       
  41 H41            0.5584     3.1651    -4.2152 H       
  42 H42           -0.8422     1.3200    -4.4236 H       
  43 H43           -2.5111     1.4965    -3.8246 H       
  44 H44            0.2319    -0.1594     2.1383 H       
  45 H45            0.7568    -1.6008     1.2356 H       
  46 H46            1.7647    -0.1336     1.2338 H       
  47 H47           -1.8238     0.4357    -1.7574 H       
  48 H48            4.3537     0.1121     0.0007 H       
  49 H49            7.3274     3.0939    -0.6419 H       
  50 H50            0.8606     1.8301     0.0037 H       
  51 H51           -1.3885     7.8010    -3.9927 H       
  52 H52           -0.5560     7.4389    -2.5790 H       
@<TRIPOS>BOND
   1    1   28 1
   2    2   19 1
   3    2   50 1
   4    3   21 2
   5    4   23 2
   6    5   27 2
   7    6   26 2
   8    7   14 2
   9    8   14 2
  10    9   15 1
  11    9   23 am
  12    9   39 1
  13   10   18 1
  14   10   20 1
  15   10   40 1
  16   11   17 1
  17   11   27 am
  18   11   41 1
  19   12   21 am
  20   12   24 1
  21   12   47 1
  22   13   26 am
  23   13   51 1
  24   13   52 1
  25   14   30 1
  26   15   19 1
  27   15   21 1
  28   15   32 1
  29   16   17 1
  30   16   18 1
  31   16   33 1
  32   16   34 1
  33   17   26 1
  34   17   35 1
  35   18   36 1
  36   18   37 1
  37   19   25 1
  38   19   38 1
  39   20   22 ar
  40   20   28 ar
  41   22   23 1
  42   22   29 ar
  43   24   27 1
  44   24   42 1
  45   24   43 1
  46   25   44 1
  47   25   45 1
  48   25   46 1
  49   28   31 ar
  50   29   30 ar
  51   29   48 1
  52   30   31 ar
  53   31   49 1

#	End of record

#	Name: 9549852
#	Creating user name:	landrgr1
#	Creation time:	28. 01. 2015 13:52

#	Modifying user name:	landrgr1
#	Modification time:	28. 01. 2015 13:52

#	Program:	corina 3.48 0006  22.01.2010

@<TRIPOS>MOLECULE
9549852
 107  111    0    0    0
SMALL
NO_CHARGES


@<TRIPOS>ATOM
   1 O1            -5.9642    -5.7317     3.5494 O.2     
   2 O2            -6.6182     3.0862    -7.4008 O.2     
   3 O3            -0.0173     1.4248     0.0099 O.3     
   4 O4            -7.8439   -12.4046     2.9552 O.3     
   5 O5           -11.6950     7.8112    -7.9609 O.3     
   6 O6             0.5393     3.9622     1.2393 O.3     
   7 O7             0.6115     5.3509     3.7545 O.3     
   8 N8            -6.0144    -2.3065     0.2136 N.3     
   9 N9            -5.9245    -0.1582    -3.9578 N.3     
  10 N10           -6.6786    -4.4085     1.9183 N.am    
  11 N11           -7.0148     1.4521    -5.9536 N.am    
  12 N12           -5.9454    -1.2254    -1.8680 N.ar    
  13 N13           -4.0273    -0.1671    -2.5768 N.ar    
  14 N14           -4.0715    -1.2209    -0.5301 N.ar    
  15 N15           -7.0762    -7.9765     2.7728 N.pl3   
  16 N16           -8.8868     4.3844    -7.1850 N.pl3   
  17 N17           -2.1054    -0.1483    -1.2305 N.pl3   
  18 N18           -5.9257    -8.4384     3.1189 N.2     
  19 N19           -8.0867     5.3924    -7.2079 N.2     
  20 N20           -6.0703    -9.4814     3.8577 N.2     
  21 N21           -8.5102     6.2762    -8.0411 N.2     
  22 C22           -5.1572    -2.5829     1.3741 C.3     
  23 C23           -6.5524    -3.5477    -0.3591 C.3     
  24 C24           -5.0235     0.6103    -4.8269 C.3     
  25 C25           -7.1597     0.5865    -3.6792 C.3     
  26 C26           -5.9947    -3.2338     2.4801 C.3     
  27 C27           -7.4471    -4.2381     0.6758 C.3     
  28 C28           -5.6986     0.8374    -6.1837 C.3     
  29 C29           -7.9224     0.8126    -4.9889 C.3     
  30 C30           -5.3354    -1.5754    -0.7399 C.ar    
  31 C31           -5.2912    -0.5216    -2.7866 C.ar    
  32 C32           -6.6027    -5.6092     2.5256 C.2     
  33 C33           -7.3794     2.5719    -6.6090 C.2     
  34 C34           -7.3114    -6.7997     1.9325 C.3     
  35 C35           -8.7329     3.1850    -6.3579 C.3     
  36 C36           -3.4174    -0.5168    -1.4485 C.ar    
  37 C37           -8.0311    -8.7680     3.3137 C.2     
  38 C38           -9.8975     4.6254    -8.0518 C.2     
  39 C39           -1.4333    -0.5336     0.0129 C.3     
  40 C40           -7.3765    -9.7258     4.0110 C.2     
  41 C41           -9.6441     5.8373    -8.5988 C.2     
  42 C42           -7.9971   -10.8502     4.7994 C.3     
  43 C43          -10.4789     6.5541    -9.6286 C.3     
  44 C44            0.0021    -0.0041     0.0020 C.3     
  45 C45           -7.4379   -12.1869     4.3079 C.3     
  46 C46          -10.8509     7.9433    -9.1064 C.3     
  47 C47           -7.9719   -13.3180     5.1890 C.3     
  48 C48          -11.5913     8.7174   -10.1989 C.3     
  49 C49            1.2801     2.0237     0.0007 C.3     
  50 C50            1.1386     3.5471     0.0102 C.3     
  51 C51            0.3611     5.3756     1.3509 C.3     
  52 C52           -0.2846     5.7034     2.6986 C.3     
  53 C53            0.1021     5.6180     5.0626 C.3     
  54 C54            1.1001     5.2195     6.0686 C.1     
  55 C55            1.8961     4.9016     6.8709 C.1     
  56 H56           -4.3542    -3.2589     1.0804 H       
  57 H57           -4.7311    -1.6496     1.7421 H       
  58 H58           -7.1382    -3.3140    -1.2482 H       
  59 H59           -5.7300    -4.2102    -0.6287 H       
  60 H60           -4.8046     1.5725    -4.3640 H       
  61 H61           -4.0960     0.0559    -4.9704 H       
  62 H62           -7.7815     0.0149    -2.9902 H       
  63 H63           -6.9111     1.5491    -3.2322 H       
  64 H64           -6.7331    -2.5212     2.8476 H       
  65 H65           -5.3438    -3.5451     3.2971 H       
  66 H66           -7.7564    -5.2133     0.3000 H       
  67 H67           -8.3251    -3.6220     0.8699 H       
  68 H68           -5.8246    -0.1173    -6.6944 H       
  69 H69           -5.0850     1.5026    -6.7912 H       
  70 H70           -8.7790     1.4615    -4.8065 H       
  71 H71           -8.2621    -0.1444    -5.3847 H       
  72 H72           -6.9290    -6.9874     0.9292 H       
  73 H73           -8.3812    -6.5974     1.8816 H       
  74 H74           -8.8197     3.4557    -5.3056 H       
  75 H75           -9.5108     2.4654    -6.6132 H       
  76 H76           -1.6283     0.3658    -1.9006 H       
  77 H77           -9.1006    -8.6545     3.2146 H       
  78 H78          -10.7344     3.9781    -8.2686 H       
  79 H79           -1.9701    -0.1109     0.8621 H       
  80 H80           -1.4190    -1.6203     0.0965 H       
  81 H81           -7.7630   -10.7252     5.8566 H       
  82 H82           -9.0784   -10.8364     4.6625 H       
  83 H83           -9.9093     6.6538   -10.5526 H       
  84 H84          -11.3871     5.9832    -9.8215 H       
  85 H85            0.5123    -0.3556    -0.8948 H       
  86 H86            0.5293    -0.3651     0.8851 H       
  87 H87           -6.3494   -12.1673     4.3619 H       
  88 H88           -9.9447     8.4822    -8.8298 H       
  89 H89           -7.5735   -14.2703     4.8388 H       
  90 H90           -7.6622   -13.1520     6.2208 H       
  91 H91           -9.0604   -13.3377     5.1350 H       
  92 H92          -11.8563     9.7070    -9.8268 H       
  93 H93          -10.9475     8.8181   -11.0726 H       
  94 H94          -12.4975     8.1785   -10.4754 H       
  95 H95            1.8338     1.7047     0.8837 H       
  96 H96            1.8168     1.7143    -0.8961 H       
  97 H97           -8.8026   -12.4338     2.8321 H       
  98 H98          -11.9707     8.6544    -7.5761 H       
  99 H99            0.5101     3.8589    -0.8239 H       
 100 H100           2.1235     4.0041    -0.0863 H       
 101 H101           1.3298     5.8705     1.2822 H       
 102 H102          -0.2836     5.7253     0.5445 H       
 103 H103          -1.2110     5.1389     2.8046 H       
 104 H104          -0.5018     6.7705     2.7475 H       
 105 H105          -0.1070     6.6833     5.1605 H       
 106 H106          -0.8162     5.0517     5.2176 H       
 107 H107           2.6080     4.6173     7.5884 H       
@<TRIPOS>BOND
   1    1   32 2
   2    2   33 2
   3    3   44 1
   4    3   49 1
   5    4   45 1
   6    4   97 1
   7    5   46 1
   8    5   98 1
   9    6   50 1
  10    6   51 1
  11    7   52 1
  12    7   53 1
  13    8   22 1
  14    8   23 1
  15    8   30 1
  16    9   24 1
  17    9   25 1
  18    9   31 1
  19   10   26 1
  20   10   27 1
  21   10   32 am
  22   11   28 1
  23   11   29 1
  24   11   33 am
  25   12   30 ar
  26   12   31 ar
  27   13   31 ar
  28   13   36 ar
  29   14   30 ar
  30   14   36 ar
  31   15   18 1
  32   15   34 1
  33   15   37 1
  34   16   19 1
  35   16   35 1
  36   16   38 1
  37   17   36 1
  38   17   39 1
  39   17   76 1
  40   18   20 2
  41   19   21 2
  42   20   40 1
  43   21   41 1
  44   22   26 1
  45   22   56 1
  46   22   57 1
  47   23   27 1
  48   23   58 1
  49   23   59 1
  50   24   28 1
  51   24   60 1
  52   24   61 1
  53   25   29 1
  54   25   62 1
  55   25   63 1
  56   26   64 1
  57   26   65 1
  58   27   66 1
  59   27   67 1
  60   28   68 1
  61   28   69 1
  62   29   70 1
  63   29   71 1
  64   32   34 1
  65   33   35 1
  66   34   72 1
  67   34   73 1
  68   35   74 1
  69   35   75 1
  70   37   40 2
  71   37   77 1
  72   38   41 2
  73   38   78 1
  74   39   44 1
  75   39   79 1
  76   39   80 1
  77   40   42 1
  78   41   43 1
  79   42   45 1
  80   42   81 1
  81   42   82 1
  82   43   46 1
  83   43   83 1
  84   43   84 1
  85   44   85 1
  86   44   86 1
  87   45   47 1
  88   45   87 1
  89   46   48 1
  90   46   88 1
  91   47   89 1
  92   47   90 1
  93   47   91 1
  94   48   92 1
  95   48   93 1
  96   48   94 1
  97   49   50 1
  98   49   95 1
  99   49   96 1
 100   50   99 1
 101   50  100 1
 102   51   52 1
 103   51  101 1
 104   51  102 1
 105   52  103 1
 106   52  104 1
 107   53   54 1
 108   53  105 1
 109   53  106 1
 110   54   55 3
 111   55  107 1

#	End of record

#	Name: 9549840
#	Creating user name:	landrgr1
#	Creation time:	28. 01. 2015 13:52

#	Modifying user name:	landrgr1
#	Modification time:	28. 01. 2015 13:52

#	Program:	corina 3.48 0006  22.01.2010

@<TRIPOS>MOLECULE
9549840
 131  135    0    0    0
SMALL
NO_CHARGES


@<TRIPOS>ATOM
   1 Cl1            0.0000     0.0000     0.0000 Cl      
   2 O2            22.9090    12.9011    10.3257 O.2     
   3 O3             9.2476    10.6008    12.6319 O.2     
   4 O4            23.2525    16.8746     9.3057 O.3     
   5 O5            17.6802     7.5471    16.9410 O.3     
   6 O6             5.8985    11.1662     5.1031 O.3     
   7 O7            12.8680     5.5783     7.2605 O.3     
   8 O8            18.6429     8.2779    19.5484 O.3     
   9 O9            17.8249     9.1991    22.1450 O.3     
  10 N10           20.7075    12.8394    10.0583 N.am    
  11 N11           18.3815    11.5482    10.8875 N.3     
  12 N12           11.1808    11.5090    12.0318 N.am    
  13 N13           13.9418    11.4704    12.4064 N.3     
  14 N14           21.8428    15.6098    11.3599 N.pl3   
  15 N15           16.1676    11.4912    11.6637 N.ar    
  16 N16           10.3004    10.3234     9.4624 N.pl3   
  17 N17           17.7268    10.0732    12.5910 N.ar    
  18 N18           15.5486    10.0350    13.3365 N.ar    
  19 N19           21.2413    16.7038    11.6730 N.2     
  20 N20           10.5927    10.5993     8.2396 N.2     
  21 N21           17.1196     8.5805    14.2969 N.pl3   
  22 N22           21.3908    16.9492    12.9269 N.2     
  23 N23           11.3843     9.7058     7.7602 N.2     
  24 N24           24.8318    18.1938    18.6327 N.4     
  25 C25           20.6783    11.3689    10.0571 C.3     
  26 C26           19.4291    13.5609     9.9662 C.3     
  27 C27           19.6794    10.9010    11.1208 C.3     
  28 C28           18.4794    13.0066    11.0335 C.3     
  29 C29           11.7058    11.4632    13.4050 C.3     
  30 C30           12.0438    12.0579    10.9748 C.3     
  31 C31           13.0797    10.7851    13.3785 C.3     
  32 C32           13.4044    11.3563    11.0440 C.3     
  33 C33           21.8934    15.0099    10.0243 C.3     
  34 C34           21.8743    13.5081    10.1471 C.2     
  35 C35            9.4258    11.1112    10.3346 C.3     
  36 C36            9.9438    11.0548    11.7487 C.2     
  37 C37           17.4135    11.0313    11.7244 C.ar    
  38 C38           15.2352    10.9930    12.4695 C.ar    
  39 C39           23.1775    15.4476     9.3170 C.3     
  40 C40            8.0081    10.5379    10.2876 C.3     
  41 C41           23.1708    14.9258     7.8787 C.3     
  42 C42           16.7942     9.5749    13.3969 C.ar    
  43 C43           22.4253    15.1119    12.4752 C.2     
  44 C44            7.4440    10.7062     8.9003 C.ar    
  45 C45           22.1254    15.9744    13.4743 C.2     
  46 C46           10.9349     9.1775     9.8020 C.2     
  47 C47           22.5427    15.8622    14.9180 C.3     
  48 C48           11.6307     8.7929     8.7065 C.2     
  49 C49           23.2720    17.1396    15.3388 C.3     
  50 C50            7.6283     9.7139     7.9553 C.ar    
  51 C51            6.7380    11.8500     8.5764 C.ar    
  52 C52           23.6957    17.0257    16.8046 C.3     
  53 C53           12.5054     7.5727     8.5764 C.3     
  54 C54           16.0920     8.0314    15.1850 C.3     
  55 C55            7.1118     9.8655     6.6830 C.ar    
  56 C56            6.2195    12.0065     7.3056 C.ar    
  57 C57           24.4250    18.3032    17.2254 C.3     
  58 C58            6.4076    11.0147     6.3540 C.ar    
  59 C59           16.7111     6.9523    16.0755 C.3     
  60 C60           12.0385     6.7354     7.3839 C.3     
  61 C61           18.3216     6.6203    17.8194 C.3     
  62 C62           19.3331     7.3634    18.6945 C.3     
  63 C63           19.5004     9.0270    20.4119 C.3     
  64 C64           18.6584     9.9682    21.2756 C.3     
  65 C65           16.9931     9.9865    22.9995 C.3     
  66 C66           16.1811     9.0988    23.8476 C.1     
  67 C67           15.5334     8.3908    24.5240 C.1     
  68 H68           20.3646    11.0097     9.0769 H       
  69 H69           21.6704    10.9828    10.2913 H       
  70 H70           19.5953    14.6240    10.1404 H       
  71 H71           18.9953    13.4124     8.9774 H       
  72 H72           20.0482    11.1716    12.1101 H       
  73 H73           19.5626     9.8190    11.0591 H       
  74 H74           17.4923    13.4518    10.9086 H       
  75 H75           18.8649    13.2480    12.0241 H       
  76 H76           11.8052    12.4770    13.7929 H       
  77 H77           11.0271    10.8910    14.0376 H       
  78 H78           11.5886    11.8788    10.0007 H       
  79 H79           12.1757    13.1288    11.1292 H       
  80 H80           12.9642     9.7405    13.0893 H       
  81 H81           13.5320    10.8409    14.3687 H       
  82 H82           14.0922    11.8264    10.3411 H       
  83 H83           13.2844    10.3038    10.7873 H       
  84 H84           21.0299    15.3382     9.4457 H       
  85 H85            9.4105    12.1466     9.9943 H       
  86 H86           24.0400    15.0426     9.8463 H       
  87 H87            8.0360     9.4785    10.5424 H       
  88 H88            7.3783    11.0672    11.0026 H       
  89 H89           24.0415    15.3113     7.3483 H       
  90 H90           23.2035    13.8364     7.8873 H       
  91 H91           22.2625    15.2581     7.3759 H       
  92 H92           23.0068    14.2053    12.5537 H       
  93 H93           10.8989     8.6747    10.7571 H       
  94 H94           21.6595    15.7257    15.5419 H       
  95 H95           23.2082    15.0074    15.0384 H       
  96 H96           23.2609    17.2750    10.1858 H       
  97 H97           24.1553    17.2761    14.7149 H       
  98 H98           22.6065    17.9944    15.2184 H       
  99 H99           18.0287     8.2452    14.3414 H       
 100 H100           8.1769     8.8197     8.2118 H       
 101 H101           6.5915    12.6217     9.3177 H       
 102 H102          22.8125    16.8893    17.4285 H       
 103 H103          24.3612    16.1709    16.9250 H       
 104 H104          13.5391     7.8816     8.4210 H       
 105 H105          12.4369     6.9777     9.4871 H       
 106 H106          15.6868     8.8285    15.8084 H       
 107 H107          15.2914     7.5946    14.5880 H       
 108 H108           7.2564     9.0903     5.9451 H       
 109 H109           5.6678    12.9000     7.0532 H       
 110 H110          23.7595    19.1580    17.1050 H       
 111 H111          25.3083    18.4396    16.6014 H       
 112 H112          17.1940     6.1998    15.4521 H       
 113 H113          15.9301     6.4822    16.6731 H       
 114 H114          12.1070     7.3304     6.4732 H       
 115 H115          11.0048     6.4266     7.5393 H       
 116 H116          24.0142    18.0675    19.2103 H       
 117 H117          25.4479    17.4025    18.7442 H       
 118 H118          25.3128    19.0362    18.9103 H       
 119 H119           5.0000    10.8239     5.0000 H       
 120 H120          12.6291     5.0000     6.5232 H       
 121 H121          17.5740     6.1434    18.4532 H       
 122 H122          18.8380     5.8609    17.2322 H       
 123 H123          20.0281     7.9130    18.0597 H       
 124 H124          19.8850     6.6456    19.3013 H       
 125 H125          20.0558     8.3437    21.0544 H       
 126 H126          20.1989     9.6111    19.8128 H       
 127 H127          18.0363    10.5916    20.6334 H       
 128 H128          19.3165    10.6021    21.8700 H       
 129 H129          17.6166    10.6207    23.6296 H       
 130 H130          16.3364    10.6103    22.3930 H       
 131 H131          14.9542     7.7576    25.1290 H       
@<TRIPOS>BOND
   1    2   34 2
   2    3   36 2
   3    4   39 1
   4    4   96 1
   5    5   59 1
   6    5   61 1
   7    6   58 1
   8    6  119 1
   9    7   60 1
  10    7  120 1
  11    8   62 1
  12    8   63 1
  13    9   64 1
  14    9   65 1
  15   10   25 1
  16   10   26 1
  17   10   34 am
  18   11   27 1
  19   11   28 1
  20   11   37 1
  21   12   29 1
  22   12   30 1
  23   12   36 am
  24   13   31 1
  25   13   32 1
  26   13   38 1
  27   14   19 1
  28   14   33 1
  29   14   43 1
  30   15   37 ar
  31   15   38 ar
  32   16   20 1
  33   16   35 1
  34   16   46 1
  35   17   37 ar
  36   17   42 ar
  37   18   38 ar
  38   18   42 ar
  39   19   22 2
  40   20   23 2
  41   21   42 1
  42   21   54 1
  43   21   99 1
  44   22   45 1
  45   23   48 1
  46   24   57 1
  47   24  116 1
  48   24  117 1
  49   24  118 1
  50   25   27 1
  51   25   68 1
  52   25   69 1
  53   26   28 1
  54   26   70 1
  55   26   71 1
  56   27   72 1
  57   27   73 1
  58   28   74 1
  59   28   75 1
  60   29   31 1
  61   29   76 1
  62   29   77 1
  63   30   32 1
  64   30   78 1
  65   30   79 1
  66   31   80 1
  67   31   81 1
  68   32   82 1
  69   32   83 1
  70   33   34 1
  71   33   39 1
  72   33   84 1
  73   35   36 1
  74   35   40 1
  75   35   85 1
  76   39   41 1
  77   39   86 1
  78   40   44 1
  79   40   87 1
  80   40   88 1
  81   41   89 1
  82   41   90 1
  83   41   91 1
  84   43   45 2
  85   43   92 1
  86   44   50 ar
  87   44   51 ar
  88   45   47 1
  89   46   48 2
  90   46   93 1
  91   47   49 1
  92   47   94 1
  93   47   95 1
  94   48   53 1
  95   49   52 1
  96   49   97 1
  97   49   98 1
  98   50   55 ar
  99   50  100 1
 100   51   56 ar
 101   51  101 1
 102   52   57 1
 103   52  102 1
 104   52  103 1
 105   53   60 1
 106   53  104 1
 107   53  105 1
 108   54   59 1
 109   54  106 1
 110   54  107 1
 111   55   58 ar
 112   55  108 1
 113   56   58 ar
 114   56  109 1
 115   57  110 1
 116   57  111 1
 117   59  112 1
 118   59  113 1
 119   60  114 1
 120   60  115 1
 121   61   62 1
 122   61  121 1
 123   61  122 1
 124   62  123 1
 125   62  124 1
 126   63   64 1
 127   63  125 1
 128   63  126 1
 129   64  127 1
 130   64  128 1
 131   65   66 1
 132   65  129 1
 133   65  130 1
 134   66   67 3
 135   67  131 1

#	End of record

#	Name: 9549807
#	Creating user name:	landrgr1
#	Creation time:	28. 01. 2015 13:52

#	Modifying user name:	landrgr1
#	Modification time:	28. 01. 2015 13:52

#	Program:	corina 3.48 0006  22.01.2010

@<TRIPOS>MOLECULE
9549807
  70   72    0    0    0
SMALL
NO_CHARGES


@<TRIPOS>ATOM
   1 S1            -0.7154     1.1466     0.0058 S.o2    
   2 O2           -10.3731     0.3239     0.7645 O.3     
   3 O3           -12.1859     1.0547    -2.2489 O.3     
   4 O4            -4.8148     2.8884    -2.5616 O.3     
   5 O5            -0.6506    -0.2546    -0.2212 O.2     
   6 O6             0.3543     1.8928     0.5699 O.2     
   7 O7             5.6340     5.0181    -2.3839 O.3     
   8 O8             3.8747     5.5985    -3.5885 O.2     
   9 N9            -9.0883     2.1724    -1.7937 N.pl3   
  10 N10           -8.9976     2.9315    -2.8293 N.2     
  11 N11           -7.8043     2.8887    -3.3076 N.2     
  12 N12           -1.0495     1.8427    -1.4592 N.am    
  13 N13           -3.4804     2.6165    -2.1736 N.2     
  14 C14          -10.2915     1.9653    -0.9840 C.3     
  15 C15          -11.0510     0.7014    -1.4556 C.3     
  16 C16           -9.9117     1.6546     0.4768 C.3     
  17 C17          -11.4913     0.0668    -0.1118 C.3     
  18 C18           -7.8829     1.5942    -1.5849 C.2     
  19 C19           -7.0661     2.0637    -2.5567 C.2     
  20 C20           -1.2449     3.2915    -1.5543 C.3     
  21 C21           -0.2834     3.8685    -2.5953 C.3     
  22 C22           -5.6128     1.7193    -2.7575 C.3     
  23 C23           -0.4879     3.1514    -3.9312 C.3     
  24 C24           -2.6650     3.5808    -1.9672 C.2     
  25 C25            1.1367     3.6712    -2.1313 C.2     
  26 C26           -5.4051     1.1923    -4.1788 C.3     
  27 C27           -2.1133     1.4185     1.0433 C.ar    
  28 C28            1.9418     4.6996    -2.0308 C.2     
  29 C29           -3.1430     0.4966     1.0714 C.ar    
  30 C30           -2.1778     2.5509     1.8335 C.ar    
  31 C31            3.3620     4.5023    -1.5668 C.3     
  32 C32           -4.3066     1.8450     2.6716 C.ar    
  33 C33           -4.2397     0.7100     1.8854 C.ar    
  34 C34           -3.2745     2.7643     2.6475 C.ar    
  35 C35           -5.5024     2.0778     3.5586 C.3     
  36 C36            4.3087     5.0799    -2.5873 C.2     
  37 C37            6.4858     5.5947    -3.4087 C.3     
  38 H38          -10.9393     2.8405    -1.0340 H       
  39 H39          -10.3886     0.0316    -2.0041 H       
  40 H40          -10.3953     2.3671     1.1450 H       
  41 H41           -8.8296     1.7058     0.5973 H       
  42 H42          -11.6498    -1.0054    -0.2273 H       
  43 H43          -12.3928     0.5508     0.2640 H       
  44 H44           -7.6230     0.9026    -0.7972 H       
  45 H45          -12.6941     0.2964    -2.5680 H       
  46 H46           -1.0480     3.7491    -0.5848 H       
  47 H47           -0.4801     4.9333    -2.7206 H       
  48 H48           -5.3182     0.9538    -2.0395 H       
  49 H49           -1.1158     1.2911    -2.2544 H       
  50 H50           -1.5151     3.2941    -4.2668 H       
  51 H51            0.1971     3.5625    -4.6728 H       
  52 H52           -0.2912     2.0866    -3.8058 H       
  53 H53           -2.9946     4.6021    -2.0890 H       
  54 H54            1.4907     2.6818    -1.8818 H       
  55 H55           -5.6997     1.9577    -4.8967 H       
  56 H56           -4.3540     0.9432    -4.3239 H       
  57 H57           -6.0138     0.3005    -4.3282 H       
  58 H58            1.5878     5.6890    -2.2803 H       
  59 H59           -3.0907    -0.3901     0.4571 H       
  60 H60           -1.3711     3.2688     1.8151 H       
  61 H61            3.5056     5.0070    -0.6114 H       
  62 H62            3.5609     3.4371    -1.4486 H       
  63 H63           -5.0445    -0.0099     1.9068 H       
  64 H64           -3.3247     3.6488     3.2651 H       
  65 H65           -5.3215     1.6321     4.5368 H       
  66 H66           -5.6673     3.1492     3.6724 H       
  67 H67           -6.3834     1.6204     3.1083 H       
  68 H68            6.3108     5.0846    -4.3559 H       
  69 H69            6.2555     6.6544    -3.5187 H       
  70 H70            7.5306     5.4780    -3.1208 H       
@<TRIPOS>BOND
   1    1    5 2
   2    1    6 2
   3    1   12 am
   4    1   27 1
   5    2   16 1
   6    2   17 1
   7    3   15 1
   8    3   45 1
   9    4   13 1
  10    4   22 1
  11    7   36 1
  12    7   37 1
  13    8   36 2
  14    9   10 1
  15    9   14 1
  16    9   18 1
  17   10   11 2
  18   11   19 1
  19   12   20 1
  20   12   49 1
  21   13   24 2
  22   14   15 1
  23   14   16 1
  24   14   38 1
  25   15   17 1
  26   15   39 1
  27   16   40 1
  28   16   41 1
  29   17   42 1
  30   17   43 1
  31   18   19 2
  32   18   44 1
  33   19   22 1
  34   20   21 1
  35   20   24 1
  36   20   46 1
  37   21   23 1
  38   21   25 1
  39   21   47 1
  40   22   26 1
  41   22   48 1
  42   23   50 1
  43   23   51 1
  44   23   52 1
  45   24   53 1
  46   25   28 2
  47   25   54 1
  48   26   55 1
  49   26   56 1
  50   26   57 1
  51   27   29 ar
  52   27   30 ar
  53   28   31 1
  54   28   58 1
  55   29   33 ar
  56   29   59 1
  57   30   34 ar
  58   30   60 1
  59   31   36 1
  60   31   61 1
  61   31   62 1
  62   32   33 ar
  63   32   34 ar
  64   32   35 1
  65   33   63 1
  66   34   64 1
  67   35   65 1
  68   35   66 1
  69   35   67 1
  70   37   68 1
  71   37   69 1
  72   37   70 1

#	End of record

#	Name: 9549779
#	Creating user name:	landrgr1
#	Creation time:	28. 01. 2015 13:52

#	Modifying user name:	landrgr1
#	Modification time:	28. 01. 2015 13:52

#	Program:	corina 3.48 0006  22.01.2010

@<TRIPOS>MOLECULE
9549779
  69   70    0    0    0
SMALL
NO_CHARGES


@<TRIPOS>ATOM
   1 S1            -0.6437     1.3409     0.2151 S.o2    
   2 O2            -7.5297     5.1878    -2.5915 O.3     
   3 O3            -4.8181     4.3162    -1.8997 O.3     
   4 O4            -9.3003     5.1113    -0.3214 O.3     
   5 O5            -0.4102    -0.0566     0.1070 O.2     
   6 O6             0.2920     2.2431     0.7892 O.2     
   7 O7            -0.3826     9.1027    -5.5913 O.3     
   8 O8             0.4437     7.0679    -5.8364 O.2     
   9 N9            -0.9371     1.8861    -1.3209 N.am    
  10 N10           -3.4869     4.1928    -1.4330 N.2     
  11 C11           -7.1010     4.8109    -1.2771 C.3     
  12 C12           -5.6279     5.1983    -1.1200 C.3     
  13 C13           -7.5840     6.6038    -2.7767 C.3     
  14 C14           -1.2451     3.2999    -1.5499 C.3     
  15 C15           -0.2834     3.8685    -2.5953 C.3     
  16 C16           -5.4253     6.6120    -1.5911 C.2     
  17 C17           -6.2947     7.2332    -2.3312 C.2     
  18 C18           -7.9418     5.5450    -0.2306 C.3     
  19 C19           -7.8138     6.9133    -4.2573 C.3     
  20 C20           -2.6619     3.4312    -2.0466 C.2     
  21 C21            1.1584     3.6682    -2.1242 C.3     
  22 C22           -0.5525     5.3401    -2.7775 C.2     
  23 C23           -2.1388     1.5264     1.1288 C.ar    
  24 C24           -9.1697     6.4034    -4.6726 C.2     
  25 C25           -0.9038     5.8012    -3.9522 C.2     
  26 C26           -3.0616     0.4976     1.1605 C.ar    
  27 C27           -2.3864     2.6985     1.8186 C.ar    
  28 C28           -1.1728     7.2727    -4.1345 C.3     
  29 C29           -4.2346     0.6432     1.8773 C.ar    
  30 C30           -3.5593     2.8440     2.5355 C.ar    
  31 C31           -4.4845     1.8173     2.5628 C.ar    
  32 C32          -10.0334     7.2167    -5.2281 C.2     
  33 C33           -0.3113     7.8065    -5.2497 C.2     
  34 C34           -5.7635     1.9761     3.3439 C.3     
  35 C35            0.4761     9.5471    -6.6745 C.3     
  36 H36           -7.2129     3.7342    -1.1491 H       
  37 H37           -5.3423     5.1213    -0.0709 H       
  38 H38           -8.4077     7.0134    -2.1919 H       
  39 H39           -1.1348     3.8517    -0.6164 H       
  40 H40           -0.4309     3.3520    -3.5437 H       
  41 H41           -4.5230     7.1311    -1.3032 H       
  42 H42           -6.0811     8.2462    -2.6390 H       
  43 H43           -7.8902     6.6187    -0.4112 H       
  44 H44           -7.5559     5.3250     0.7648 H       
  45 H45           -7.7670     7.9909    -4.4148 H       
  46 H46           -7.0435     6.4251    -4.8544 H       
  47 H47           -0.9049     1.2693    -2.0688 H       
  48 H48           -2.9808     2.8825    -2.9205 H       
  49 H49            1.3306     2.6112    -1.9208 H       
  50 H50            1.8446     4.0051    -2.9012 H       
  51 H51            1.3272     4.2453    -1.2151 H       
  52 H52           -0.4556     6.0146    -1.9396 H       
  53 H53           -9.4294     5.3674    -4.5122 H       
  54 H54           -1.0007     5.1267    -4.7902 H       
  55 H55           -9.8922     5.5364     0.3143 H       
  56 H56           -2.8664    -0.4196     0.6249 H       
  57 H57           -1.6632     3.5003     1.7977 H       
  58 H58           -2.2234     7.4219    -4.3837 H       
  59 H59           -0.9400     7.8018    -3.2104 H       
  60 H60           -4.9559    -0.1603     1.9015 H       
  61 H61           -3.7526     3.7596     3.0747 H       
  62 H62           -9.7738     8.2527    -5.3885 H       
  63 H63          -11.0052     6.8513    -5.5257 H       
  64 H64           -5.6115     1.6262     4.3650 H       
  65 H65           -6.0518     3.0272     3.3591 H       
  66 H66           -6.5523     1.3899     2.8725 H       
  67 H67            1.5182     9.3716    -6.4075 H       
  68 H68            0.2347     8.9917    -7.5808 H       
  69 H69            0.3200    10.6118    -6.8485 H       
@<TRIPOS>BOND
   1    1    5 2
   2    1    6 2
   3    1    9 am
   4    1   23 1
   5    2   11 1
   6    2   13 1
   7    3   10 1
   8    3   12 1
   9    4   18 1
  10    4   55 1
  11    7   33 1
  12    7   35 1
  13    8   33 2
  14    9   14 1
  15    9   47 1
  16   10   20 2
  17   11   12 1
  18   11   18 1
  19   11   36 1
  20   12   16 1
  21   12   37 1
  22   13   17 1
  23   13   19 1
  24   13   38 1
  25   14   15 1
  26   14   20 1
  27   14   39 1
  28   15   21 1
  29   15   22 1
  30   15   40 1
  31   16   17 2
  32   16   41 1
  33   17   42 1
  34   18   43 1
  35   18   44 1
  36   19   24 1
  37   19   45 1
  38   19   46 1
  39   20   48 1
  40   21   49 1
  41   21   50 1
  42   21   51 1
  43   22   25 2
  44   22   52 1
  45   23   26 ar
  46   23   27 ar
  47   24   32 2
  48   24   53 1
  49   25   28 1
  50   25   54 1
  51   26   29 ar
  52   26   56 1
  53   27   30 ar
  54   27   57 1
  55   28   33 1
  56   28   58 1
  57   28   59 1
  58   29   31 ar
  59   29   60 1
  60   30   31 ar
  61   30   61 1
  62   31   34 1
  63   32   62 1
  64   32   63 1
  65   34   64 1
  66   34   65 1
  67   34   66 1
  68   35   67 1
  69   35   68 1
  70   35   69 1

#	End of record

#	Name: 9549777
#	Creating user name:	landrgr1
#	Creation time:	28. 01. 2015 13:52

#	Modifying user name:	landrgr1
#	Modification time:	28. 01. 2015 13:52

#	Program:	corina 3.48 0006  22.01.2010

@<TRIPOS>MOLECULE
9549777
  94   98    0    0    0
SMALL
NO_CHARGES


@<TRIPOS>ATOM
   1 O1             0.0969     1.6359     0.0100 O.3     
   2 O2             0.7374    -0.9143     9.3319 O.3     
   3 O3            -0.5345     0.0179    -2.3511 O.3     
   4 O4             0.5702     0.0141     2.3579 O.3     
   5 O5             2.3157    -1.0405     3.2091 O.2     
   6 O6            -0.6027    -2.9746    -6.9508 O.3     
   7 N7            -1.7926    -1.0541    10.6344 N.3     
   8 N8            -3.9235    -2.4263     8.0406 N.ar    
   9 N9             1.1345    -1.2335     8.0108 N.2     
  10 C10           -2.7409    -0.6288    11.6720 C.3     
  11 C11           -3.5605     0.5607    11.2081 C.3     
  12 C12           -4.5177     0.2431    10.0740 C.3     
  13 C13           -3.7471    -0.1002     8.7960 C.3     
  14 C14           -2.4014    -1.9729     9.7674 C.ar    
  15 C15           -0.5768    -1.6211    11.2330 C.3     
  16 C16           -3.3516    -1.5619     8.8584 C.ar    
  17 C17            0.3852    -2.0507    10.1236 C.3     
  18 C18           -2.0414    -3.3177     9.8235 C.ar    
  19 C19           -2.6644    -4.1940     8.9488 C.ar    
  20 C20            0.0723     0.2034    -0.0183 C.3     
  21 C21           -3.6085    -3.7070     8.0636 C.ar    
  22 C22            0.5063    -0.2596    -1.4120 C.3     
  23 C23            1.6479    -2.6491    10.7469 C.3     
  24 C24            1.4182     2.1738    -0.0728 C.3     
  25 C25            1.0376    -0.3495     1.0321 C.3     
  26 C26            1.7562     0.4706    -1.8194 C.2     
  27 C27            2.1573     1.5547    -1.2248 C.2     
  28 C28           -2.3165    -5.6602     8.9619 C.3     
  29 C29           -4.2892    -4.6550     7.1101 C.3     
  30 C30            1.3387     3.6652    -0.2738 C.ar    
  31 C31            2.2867     4.4915     0.3002 C.ar    
  32 C32            0.3211     4.2065    -1.0369 C.ar    
  33 C33            1.8971    -0.6415     5.7961 C.3     
  34 C34            1.4744    -0.3019     7.2022 C.2     
  35 C35            0.8879    -0.0579     4.8052 C.3     
  36 C36           -0.5514    -0.7236    -3.4908 C.ar    
  37 C37            1.3105    -0.3976     3.3991 C.2     
  38 C38            2.2138     5.8596     0.1158 C.ar    
  39 C39            0.2482     5.5746    -1.2213 C.ar    
  40 C40            1.4522     1.1350     7.6560 C.3     
  41 C41            1.1931     6.4013    -0.6430 C.ar    
  42 C42            0.3654    -1.7498    -3.6642 C.ar    
  43 C43           -1.4891    -0.4574    -4.4775 C.ar    
  44 C44            0.3483    -2.5030    -4.8219 C.ar    
  45 C45           -1.5063    -1.2106    -5.6352 C.ar    
  46 C46           -0.5861    -2.2334    -5.8109 C.ar    
  47 C47           -1.5920    -2.6418    -7.9267 C.3     
  48 H48           -3.4114    -1.4561    11.9047 H       
  49 H49           -2.1884    -0.3539    12.5705 H       
  50 H50           -4.1361     0.9373    12.0537 H       
  51 H51           -2.8791     1.3451    10.8786 H       
  52 H52           -5.1404    -0.6056    10.3568 H       
  53 H53           -5.1540     1.1083     9.8882 H       
  54 H54           -4.3817     0.0721     7.9267 H       
  55 H55           -2.8533     0.5198     8.7280 H       
  56 H56           -0.0962    -0.8700    11.8599 H       
  57 H57           -0.8406    -2.4868    11.8406 H       
  58 H58           -0.0976    -2.7973     9.4930 H       
  59 H59           -1.2996    -3.6665    10.5267 H       
  60 H60           -0.9378    -0.1506     0.1881 H       
  61 H61            0.7023    -1.3316    -1.3936 H       
  62 H62            1.9524     1.9641     0.8539 H       
  63 H63            2.1307    -1.9025    11.3775 H       
  64 H64            1.3793    -3.5159    11.3507 H       
  65 H65            2.3333    -2.9552     9.9565 H       
  66 H66            2.0306     0.0694     0.8693 H       
  67 H67            1.0831    -1.4353     0.9480 H       
  68 H68            2.3432     0.0792    -2.6371 H       
  69 H69            3.0614     2.0311    -1.5743 H       
  70 H70           -2.9707    -6.1826     9.6599 H       
  71 H71           -2.4478    -6.0738     7.9620 H       
  72 H72           -1.2794    -5.7848     9.2733 H       
  73 H73           -3.7154    -4.7145     6.1853 H       
  74 H74           -4.3511    -5.6443     7.5636 H       
  75 H75           -5.2935    -4.2919     6.8919 H       
  76 H76            3.0841     4.0683     0.8929 H       
  77 H77           -0.4168     3.5606    -1.4893 H       
  78 H78            2.8831    -0.2199     5.6012 H       
  79 H79            1.9356    -1.7246     5.6800 H       
  80 H80           -0.0982    -0.4796     5.0001 H       
  81 H81            0.8493     1.0252     4.9214 H       
  82 H82            2.9540     6.5052     0.5648 H       
  83 H83           -0.5467     5.9975    -1.8178 H       
  84 H84            1.1360     7.4702    -0.7867 H       
  85 H85            2.4220     1.3976     8.0788 H       
  86 H86            1.2399     1.7817     6.8046 H       
  87 H87            0.6787     1.2651     8.4129 H       
  88 H88            1.0929    -1.9598    -2.8941 H       
  89 H89           -2.2060     0.3386    -4.3405 H       
  90 H90            1.0626    -3.3017    -4.9572 H       
  91 H91           -2.2367    -1.0036    -6.4034 H       
  92 H92           -2.5847    -2.7532    -7.4905 H       
  93 H93           -1.4509    -1.6104    -8.2500 H       
  94 H94           -1.4952    -3.3078    -8.7841 H       
@<TRIPOS>BOND
   1    1   20 1
   2    1   24 1
   3    2    9 1
   4    2   17 1
   5    3   22 1
   6    3   36 1
   7    4   25 1
   8    4   37 1
   9    5   37 2
  10    6   46 1
  11    6   47 1
  12    7   10 1
  13    7   14 1
  14    7   15 1
  15    8   16 ar
  16    8   21 ar
  17    9   34 2
  18   10   11 1
  19   10   48 1
  20   10   49 1
  21   11   12 1
  22   11   50 1
  23   11   51 1
  24   12   13 1
  25   12   52 1
  26   12   53 1
  27   13   16 1
  28   13   54 1
  29   13   55 1
  30   14   16 ar
  31   14   18 ar
  32   15   17 1
  33   15   56 1
  34   15   57 1
  35   17   23 1
  36   17   58 1
  37   18   19 ar
  38   18   59 1
  39   19   21 ar
  40   19   28 1
  41   20   22 1
  42   20   25 1
  43   20   60 1
  44   21   29 1
  45   22   26 1
  46   22   61 1
  47   23   63 1
  48   23   64 1
  49   23   65 1
  50   24   27 1
  51   24   30 1
  52   24   62 1
  53   25   66 1
  54   25   67 1
  55   26   27 2
  56   26   68 1
  57   27   69 1
  58   28   70 1
  59   28   71 1
  60   28   72 1
  61   29   73 1
  62   29   74 1
  63   29   75 1
  64   30   31 ar
  65   30   32 ar
  66   31   38 ar
  67   31   76 1
  68   32   39 ar
  69   32   77 1
  70   33   34 1
  71   33   35 1
  72   33   78 1
  73   33   79 1
  74   34   40 1
  75   35   37 1
  76   35   80 1
  77   35   81 1
  78   36   42 ar
  79   36   43 ar
  80   38   41 ar
  81   38   82 1
  82   39   41 ar
  83   39   83 1
  84   40   85 1
  85   40   86 1
  86   40   87 1
  87   41   84 1
  88   42   44 ar
  89   42   88 1
  90   43   45 ar
  91   43   89 1
  92   44   46 ar
  93   44   90 1
  94   45   46 ar
  95   45   91 1
  96   47   92 1
  97   47   93 1
  98   47   94 1

#	End of record

#	Name: 9549772
#	Creating user name:	landrgr1
#	Creation time:	28. 01. 2015 13:52

#	Modifying user name:	landrgr1
#	Modification time:	28. 01. 2015 13:52

#	Program:	corina 3.48 0006  22.01.2010

@<TRIPOS>MOLECULE
9549772
  53   54    0    0    0
SMALL
NO_CHARGES


@<TRIPOS>ATOM
   1 S1             0.1726     0.6836     2.1107 S.o     
   2 O2            -0.6894     1.7391     2.5135 O.2     
   3 N3             1.6813     1.3246     2.3461 N.am    
   4 C4             4.0718     4.2216    -6.6464 C.3     
   5 C5             3.0708     3.6416    -5.6452 C.3     
   6 C6             3.4300     4.2793    -8.0340 C.3     
   7 C7             3.7126     3.5839    -4.2575 C.3     
   8 C8             4.4310     4.8594    -9.0352 C.3     
   9 C9             2.7116     3.0038    -3.2563 C.3     
  10 C10            3.7892     4.9171   -10.4229 C.3     
  11 C11            3.3291     2.9483    -1.9212 C.1     
  12 C12            4.4223     2.8500     0.4423 C.ar    
  13 C13            3.8216     2.9040    -0.8565 C.1     
  14 C14            3.6945     2.3500     1.5402 C.ar    
  15 C15            5.7331     3.2865     0.6279 C.ar    
  16 C16            4.2938     2.3039     2.7992 C.ar    
  17 C17            0.0239    -0.4749     3.4299 C.ar    
  18 C18           -0.2092    -2.2930     5.4997 C.ar    
  19 C19            2.3098     1.8794     1.3599 C.2     
  20 C20            6.3074     3.2325     1.8816 C.ar    
  21 C21           -0.8707    -1.5240     3.3309 C.ar    
  22 C22            0.8060    -0.3379     4.5615 C.ar    
  23 C23            5.5903     2.7462     2.9623 C.ar    
  24 C24           -0.9874    -2.4329     4.3658 C.ar    
  25 C25            0.6893    -1.2469     5.5965 C.ar    
  26 C26           -0.3364    -3.2838     6.6280 C.3     
  27 H27            4.3557     5.2270    -6.3353 H       
  28 H28            4.9583     3.5884    -6.6821 H       
  29 H29            2.1843     4.2748    -5.6094 H       
  30 H30            2.7869     2.6362    -5.9563 H       
  31 H31            3.1461     3.2740    -8.3451 H       
  32 H32            2.5435     4.9125    -7.9983 H       
  33 H33            4.5991     2.9507    -4.2933 H       
  34 H34            3.9965     4.5892    -3.9464 H       
  35 H35            4.7149     5.8647    -8.7241 H       
  36 H36            5.3175     4.2262    -9.0710 H       
  37 H37            1.8251     3.6370    -3.2205 H       
  38 H38            2.4277     1.9985    -3.5674 H       
  39 H39            4.5023     5.3303   -11.1362 H       
  40 H40            3.5053     3.9117   -10.7340 H       
  41 H41            2.9027     5.5503   -10.3871 H       
  42 H42            6.2993     3.6667    -0.2096 H       
  43 H43            3.7427     1.9223     3.6461 H       
  44 H44            1.8194     1.9974     0.4050 H       
  45 H45            7.3234     3.5713     2.0210 H       
  46 H46           -1.4788    -1.6334     2.4450 H       
  47 H47            1.5084     0.4790     4.6369 H       
  48 H48           -1.6894    -3.2502     4.2902 H       
  49 H49            1.2974    -1.1375     6.4823 H       
  50 H50            6.0507     2.7093     3.9386 H       
  51 H51            0.3629    -4.1051     6.4709 H       
  52 H52           -0.1100    -2.7896     7.5728 H       
  53 H53           -1.3539    -3.6735     6.6564 H       
@<TRIPOS>BOND
   1    1    2 2
   2    1    3 am
   3    1   17 1
   4    3   19 2
   5    4    5 1
   6    4    6 1
   7    4   27 1
   8    4   28 1
   9    5    7 1
  10    5   29 1
  11    5   30 1
  12    6    8 1
  13    6   31 1
  14    6   32 1
  15    7    9 1
  16    7   33 1
  17    7   34 1
  18    8   10 1
  19    8   35 1
  20    8   36 1
  21    9   11 1
  22    9   37 1
  23    9   38 1
  24   10   39 1
  25   10   40 1
  26   10   41 1
  27   11   13 3
  28   12   13 1
  29   12   14 ar
  30   12   15 ar
  31   14   16 ar
  32   14   19 1
  33   15   20 ar
  34   15   42 1
  35   16   23 ar
  36   16   43 1
  37   17   21 ar
  38   17   22 ar
  39   18   24 ar
  40   18   25 ar
  41   18   26 1
  42   19   44 1
  43   20   23 ar
  44   20   45 1
  45   21   24 ar
  46   21   46 1
  47   22   25 ar
  48   22   47 1
  49   23   50 1
  50   24   48 1
  51   25   49 1
  52   26   51 1
  53   26   52 1
  54   26   53 1

#	End of record

#	Name: 9549748
#	Creating user name:	landrgr1
#	Creation time:	28. 01. 2015 13:52

#	Modifying user name:	landrgr1
#	Modification time:	28. 01. 2015 13:52

#	Program:	corina 3.48 0006  22.01.2010

@<TRIPOS>MOLECULE
9549748
  33   35    0    0    0
SMALL
NO_CHARGES


@<TRIPOS>ATOM
   1 Cl1            3.5523     5.1003    -0.4898 Cl      
   2 S2             0.2106     3.8080     0.4560 S.2     
   3 N3            -0.0176     1.4434     0.0100 N.am    
   4 C4             2.2344     2.3953    -0.3490 C.3     
   5 C5             2.8567     1.1310    -0.8544 C.ar    
   6 C6             2.2861    -0.0513    -1.1036 C.ar    
   7 C7             0.8450    -0.5189    -1.1458 C.3     
   8 C8             0.0021    -0.0041     0.0020 C.3     
   9 C9             0.8037     2.3925     0.0072 C.2     
  10 C10            3.0059     2.8248     0.8722 C.ar    
  11 C11            4.2417     1.2949    -1.0610 C.ar    
  12 C12            3.1264    -1.1353    -1.4528 C.ar    
  13 C13            3.6421     4.0535     0.8921 C.ar    
  14 C14            3.0734     1.9942     1.9745 C.ar    
  15 C15            5.0476     0.2554    -1.4491 C.ar    
  16 C16            4.4766    -0.9917    -1.6276 C.ar    
  17 C17            4.3501     4.4470     2.0134 C.ar    
  18 C18            3.7808     2.3883     3.0952 C.ar    
  19 C19            4.4217     3.6128     3.1134 C.ar    
  20 H20            2.3821     3.1614    -1.1102 H       
  21 H21            0.3982    -0.1857    -2.0825 H       
  22 H22            0.8320    -1.6086    -1.1257 H       
  23 H23            0.4187    -0.3631     0.9431 H       
  24 H24           -1.0166    -0.3768    -0.1048 H       
  25 H25           -0.9288     1.7759     0.0155 H       
  26 H26            4.6818     2.2693    -0.9084 H       
  27 H27            2.6861    -2.1124    -1.5859 H       
  28 H28            2.5732     1.0371     1.9608 H       
  29 H29            6.1043     0.4073    -1.6125 H       
  30 H30            5.0870    -1.8399    -1.9005 H       
  31 H31            4.8472     5.4057     2.0294 H       
  32 H32            3.8327     1.7391     3.9567 H       
  33 H33            4.9744     3.9200     3.9889 H       
@<TRIPOS>BOND
   1    1   13 1
   2    2    9 2
   3    3    8 1
   4    3    9 am
   5    3   25 1
   6    4    5 1
   7    4    9 1
   8    4   10 1
   9    4   20 1
  10    5    6 ar
  11    5   11 ar
  12    6    7 1
  13    6   12 ar
  14    7    8 1
  15    7   21 1
  16    7   22 1
  17    8   23 1
  18    8   24 1
  19   10   13 ar
  20   10   14 ar
  21   11   15 ar
  22   11   26 1
  23   12   16 ar
  24   12   27 1
  25   13   17 ar
  26   14   18 ar
  27   14   28 1
  28   15   16 ar
  29   15   29 1
  30   16   30 1
  31   17   19 ar
  32   17   31 1
  33   18   19 ar
  34   18   32 1
  35   19   33 1

#	End of record

#	Name: 9549738
#	Creating user name:	landrgr1
#	Creation time:	28. 01. 2015 13:52

#	Modifying user name:	landrgr1
#	Modification time:	28. 01. 2015 13:52

#	Program:	corina 3.48 0006  22.01.2010

@<TRIPOS>MOLECULE
9549738
  29   31    0    0    0
SMALL
NO_CHARGES


@<TRIPOS>ATOM
   1 S1            -0.0219     1.7609     0.0117 S.3     
   2 O2             3.4356     0.3102    -0.0238 O.2     
   3 O3             0.4772     4.5302     0.0244 O.3     
   4 N4             1.3250    -0.4045    -0.0216 N.am    
   5 N5            -1.0252    -0.8044     0.0135 N.2     
   6 C6             1.6631    -1.8519    -0.0521 C.3     
   7 C7             0.4936    -2.5853    -0.7178 C.3     
   8 C8            -0.8065    -2.2552     0.0177 C.3     
   9 C9             0.0021    -0.0041     0.0020 C.2     
  10 C10            2.2437     0.5591    -0.0174 C.2     
  11 C11            1.7438     1.9299    -0.0042 C.2     
  12 C12            2.4708     3.0822    -0.0042 C.2     
  13 C13            1.8121     4.3341     0.0103 C.2     
  14 C14            2.4202     5.5730     0.0121 C.2     
  15 C15            0.2195     5.8464     0.0350 C.2     
  16 C16            1.3880     6.5244     0.0279 C.2     
  17 C17           -1.1528     6.4689     0.0516 C.3     
  18 H18            2.5742    -2.0070    -0.6300 H       
  19 H19            1.8012    -2.2212     0.9641 H       
  20 H20            0.4121    -2.2695    -1.7579 H       
  21 H21            0.6698    -3.6602    -0.6784 H       
  22 H22           -0.7404    -2.6088     1.0466 H       
  23 H23           -1.6405    -2.7488    -0.4812 H       
  24 H24            3.5499     3.0398    -0.0152 H       
  25 H25            3.4817     5.7717     0.0036 H       
  26 H26            1.5060     7.5979     0.0337 H       
  27 H27           -1.9082     5.6831     0.0542 H       
  28 H28           -1.2630     7.0817     0.9463 H       
  29 H29           -1.2799     7.0921    -0.8335 H       
@<TRIPOS>BOND
   1    1    9 1
   2    1   11 1
   3    2   10 2
   4    3   13 1
   5    3   15 1
   6    4    6 1
   7    4    9 1
   8    4   10 am
   9    5    8 1
  10    5    9 2
  11    6    7 1
  12    6   18 1
  13    6   19 1
  14    7    8 1
  15    7   20 1
  16    7   21 1
  17    8   22 1
  18    8   23 1
  19   10   11 1
  20   11   12 2
  21   12   13 1
  22   12   24 1
  23   13   14 2
  24   14   16 1
  25   14   25 1
  26   15   16 2
  27   15   17 1
  28   16   26 1
  29   17   27 1
  30   17   28 1
  31   17   29 1

#	End of record

#	Name: 9549730
#	Creating user name:	landrgr1
#	Creation time:	28. 01. 2015 13:52

#	Modifying user name:	landrgr1
#	Modification time:	28. 01. 2015 13:52

#	Program:	corina 3.48 0006  22.01.2010

@<TRIPOS>MOLECULE
9549730
  64   66    0    0    0
SMALL
NO_CHARGES


@<TRIPOS>ATOM
   1 Cl1          -10.6420     3.2514    14.2638 Cl      
   2 S2            -0.0172     1.4168     0.0098 S.o2    
   3 S3            -4.0596     4.3302     6.8609 S.3     
   4 O4            -1.5665     2.2299    -3.9563 O.3     
   5 O5             0.0021    -0.0041     0.0020 O.2     
   6 O6             1.1617     2.2101     0.0028 O.2     
   7 O7            -7.6486     2.6601    10.1985 O.3     
   8 O8            -5.8366     3.7128     8.6482 O.2     
   9 N9            -0.9002     1.8797    -1.3124 N.am    
  10 N10           -4.0185     2.2456     5.4640 N.2     
  11 N11           -5.5887     2.0119     7.2455 N.am    
  12 C12           -0.7188     3.2091    -1.9168 C.3     
  13 C13           -1.8891     0.9738    -1.9179 C.3     
  14 C14           -0.5077     3.0300    -3.4245 C.3     
  15 C15           -1.6210     0.9035    -3.4256 C.3     
  16 C16           -0.9297     1.8941     1.4396 C.ar    
  17 C17           -1.8430     1.0182     1.9983 C.ar    
  18 C18           -0.7258     3.1413     2.0024 C.ar    
  19 C19           -2.3634     2.6442     3.6861 C.ar    
  20 C20           -2.5605     1.3867     3.1181 C.ar    
  21 C21           -1.4373     3.5203     3.1225 C.ar    
  22 C22           -3.1314     3.0460     4.8896 C.2     
  23 C23           -2.9756     4.2475     5.4740 C.2     
  24 C24           -4.6310     2.7014     6.5119 C.2     
  25 C25           -6.1592     2.5904     8.3208 C.2     
  26 C26           -7.1979     1.8427     9.1165 C.3     
  27 C27           -8.5933     2.1308    11.0196 C.ar    
  28 C28           -9.0758     2.8693    12.0898 C.ar    
  29 C29           -9.0808     0.8530    10.7851 C.ar    
  30 C30          -10.0371     2.3283    12.9238 C.ar    
  31 C31          -10.0411     0.3167    11.6207 C.ar    
  32 C32          -10.5167     1.0516    12.6909 C.ar    
  33 H33           -1.6062     3.8169    -1.7400 H       
  34 H34            0.1531     3.6954    -1.4793 H       
  35 H35           -1.7922    -0.0202    -1.4811 H       
  36 H36           -2.8943     1.3565    -1.7412 H       
  37 H37            0.4471     2.5351    -3.6022 H       
  38 H38           -0.5091     4.0055    -3.9108 H       
  39 H39           -2.4233     0.3492    -3.9126 H       
  40 H40           -0.6703     0.4009    -3.6033 H       
  41 H41           -1.9951     0.0443     1.5571 H       
  42 H42           -0.0083     3.8194     1.5646 H       
  43 H43           -3.2735     0.7022     3.5532 H       
  44 H44           -1.2774     4.4942     3.5611 H       
  45 H45           -2.3026     5.0272     5.1490 H       
  46 H46           -5.8467     1.1143     6.9837 H       
  47 H47           -6.7619     0.9250     9.5114 H       
  48 H48           -8.0414     1.5960     8.4716 H       
  49 H49           -8.7008     3.8656    12.2719 H       
  50 H50           -8.7099     0.2782     9.9493 H       
  51 H51          -10.4207    -0.6778    11.4379 H       
  52 H52          -11.2673     0.6302    13.3433 H       
  53 O53            6.1617    11.9020    20.3121 O.2     
  54 N54            8.3799    11.8647    20.3014 N.am    
  55 C55            8.3998    10.3998    20.2934 C.3     
  56 C56            9.6386    12.6144    20.2934 C.3     
  57 C57            7.2037    12.5226    20.3106 C.2     
  58 H58            8.4145    10.0310    21.3190 H       
  59 H59            7.5100    10.0272    19.7860 H       
  60 H60            9.2897    10.0514    19.7691 H       
  61 H61            9.9409    12.8058    19.2638 H       
  62 H62            9.5002    13.5621    20.8137 H       
  63 H63           10.4110    12.0329    20.7968 H       
  64 H64            7.1891    13.6025    20.3165 H       
@<TRIPOS>BOND
   1    1   30 1
   2    2    5 2
   3    2    6 2
   4    2    9 am
   5    2   16 1
   6    3   23 1
   7    3   24 1
   8    4   14 1
   9    4   15 1
  10    7   26 1
  11    7   27 1
  12    8   25 2
  13    9   12 1
  14    9   13 1
  15   10   22 1
  16   10   24 2
  17   11   24 1
  18   11   25 am
  19   11   46 1
  20   12   14 1
  21   12   33 1
  22   12   34 1
  23   13   15 1
  24   13   35 1
  25   13   36 1
  26   14   37 1
  27   14   38 1
  28   15   39 1
  29   15   40 1
  30   16   17 ar
  31   16   18 ar
  32   17   20 ar
  33   17   41 1
  34   18   21 ar
  35   18   42 1
  36   19   20 ar
  37   19   21 ar
  38   19   22 1
  39   20   43 1
  40   21   44 1
  41   22   23 2
  42   23   45 1
  43   25   26 1
  44   26   47 1
  45   26   48 1
  46   27   28 ar
  47   27   29 ar
  48   28   30 ar
  49   28   49 1
  50   29   31 ar
  51   29   50 1
  52   30   32 ar
  53   31   32 ar
  54   31   51 1
  55   32   52 1
  56   53   57 2
  57   54   55 1
  58   54   56 1
  59   54   57 am
  60   55   58 1
  61   55   59 1
  62   55   60 1
  63   56   61 1
  64   56   62 1
  65   56   63 1
  66   57   64 1

#	End of record

#	Name: 9549724
#	Creating user name:	landrgr1
#	Creation time:	28. 01. 2015 13:52

#	Modifying user name:	landrgr1
#	Modification time:	28. 01. 2015 13:52

#	Program:	corina 3.48 0006  22.01.2010

@<TRIPOS>MOLECULE
9549724
  60   63    0    0    0
SMALL
NO_CHARGES


@<TRIPOS>ATOM
   1 S1            -1.7268     3.8870    -1.3380 S.o2    
   2 O2            -0.6170     4.7178    -1.6502 O.2     
   3 O3            -2.9653     4.0323    -2.0193 O.2     
   4 N4             3.1549     3.0131    -3.7307 N.3     
   5 N5             0.4289     2.5460    -3.0554 N.3     
   6 C6             4.3113     3.8369    -4.1077 C.3     
   7 C7             5.3257     3.8466    -2.9624 C.3     
   8 C8             4.9647     3.2549    -5.3628 C.3     
   9 C9             2.1062     3.0759    -4.7582 C.3     
  10 C10            2.6277     3.4143    -2.4190 C.3     
  11 C11            0.9562     2.1448    -4.3671 C.3     
  12 C12            1.4777     2.4832    -2.0279 C.3     
  13 C13            6.5300     4.7046    -3.3550 C.3     
  14 C14            6.1690     4.1129    -5.7554 C.3     
  15 C15            7.1834     4.1226    -4.6101 C.3     
  16 C16           -0.7274     1.7221    -2.6784 C.3     
  17 C17           -1.2249     2.1443    -1.2945 C.3     
  18 C18           -1.8468     1.9149    -3.7035 C.3     
  19 C19           -2.1043     4.2778     0.3381 C.ar    
  20 C20           -1.1236     4.7546     1.1522 C.ar    
  21 C21           -3.4041     4.0994     0.8085 C.ar    
  22 C22           -1.4213     5.0678     2.4897 C.ar    
  23 C23           -3.7294     4.3923     2.0970 C.ar    
  24 C24           -2.7419     4.8813     2.9695 C.ar    
  25 C25           -0.4354     5.5618     3.3604 C.ar    
  26 C26           -3.0396     5.1938     4.3066 C.ar    
  27 C27           -0.7605     5.8538     4.6496 C.ar    
  28 C28           -2.0587     5.6703     5.1213 C.ar    
  29 H29            3.9811     4.8560    -4.3093 H       
  30 H30            4.8602     4.2612    -2.0682 H       
  31 H31            5.6558     2.8275    -2.7608 H       
  32 H32            5.2948     2.2358    -5.1613 H       
  33 H33            4.2420     3.2480    -6.1787 H       
  34 H34            1.7357     4.0979    -4.8377 H       
  35 H35            2.5177     2.7623    -5.7176 H       
  36 H36            3.4195     3.3474    -1.6729 H       
  37 H37            2.2631     4.4401    -2.4718 H       
  38 H38            1.3207     1.1189    -4.3143 H       
  39 H39            0.1643     2.2116    -5.1132 H       
  40 H40            1.0661     2.7967    -1.0685 H       
  41 H41            1.8482     1.4612    -1.9484 H       
  42 H42            6.1999     5.7237    -3.5566 H       
  43 H43            7.2527     4.7115    -2.5391 H       
  44 H44            6.6345     3.6983    -6.6496 H       
  45 H45            5.8389     5.1320    -5.9570 H       
  46 H46            8.0414     4.7339    -4.8898 H       
  47 H47            7.5136     3.1035    -4.4086 H       
  48 H48           -0.4335     0.6728    -2.6543 H       
  49 H49           -0.4249     2.0147    -0.5657 H       
  50 H50           -2.0778     1.5276    -1.0113 H       
  51 H51           -1.4923     1.6141    -4.6894 H       
  52 H52           -2.7048     1.3036    -3.4237 H       
  53 H53           -2.1407     2.9642    -3.7275 H       
  54 H54           -0.1217     4.8913     0.7728 H       
  55 H55           -4.1647     3.7233     0.1403 H       
  56 H56           -4.7408     4.2492     2.4475 H       
  57 H57            0.5751     5.7086     3.0088 H       
  58 H58           -4.0415     5.0571     4.6859 H       
  59 H59           -0.0007     6.2330     5.3169 H       
  60 H60           -2.2902     5.9101     6.1486 H       
@<TRIPOS>BOND
   1    1    2 2
   2    1    3 2
   3    1   17 1
   4    1   19 1
   5    4    6 1
   6    4    9 1
   7    4   10 1
   8    5   11 1
   9    5   12 1
  10    5   16 1
  11    6    7 1
  12    6    8 1
  13    6   29 1
  14    7   13 1
  15    7   30 1
  16    7   31 1
  17    8   14 1
  18    8   32 1
  19    8   33 1
  20    9   11 1
  21    9   34 1
  22    9   35 1
  23   10   12 1
  24   10   36 1
  25   10   37 1
  26   11   38 1
  27   11   39 1
  28   12   40 1
  29   12   41 1
  30   13   15 1
  31   13   42 1
  32   13   43 1
  33   14   15 1
  34   14   44 1
  35   14   45 1
  36   15   46 1
  37   15   47 1
  38   16   17 1
  39   16   18 1
  40   16   48 1
  41   17   49 1
  42   17   50 1
  43   18   51 1
  44   18   52 1
  45   18   53 1
  46   19   20 ar
  47   19   21 ar
  48   20   22 ar
  49   20   54 1
  50   21   23 ar
  51   21   55 1
  52   22   24 ar
  53   22   25 ar
  54   23   24 ar
  55   23   56 1
  56   24   26 ar
  57   25   27 ar
  58   25   57 1
  59   26   28 ar
  60   26   58 1
  61   27   28 ar
  62   27   59 1
  63   28   60 1

#	End of record

#	Name: 9549719
#	Creating user name:	landrgr1
#	Creation time:	28. 01. 2015 13:52

#	Modifying user name:	landrgr1
#	Modification time:	28. 01. 2015 13:52

#	Program:	corina 3.48 0006  22.01.2010

@<TRIPOS>MOLECULE
9549719
  34   35    0    0    0
SMALL
NO_CHARGES


@<TRIPOS>ATOM
   1 S1            -0.0225     1.8057     0.0120 S.3     
   2 O2            -1.6274    -1.7793    -0.5353 O.3     
   3 O3             2.2881     3.3502    -0.0018 O.3     
   4 O4             1.2987    -1.5049     1.2730 O.2     
   5 O5            -2.3397     0.1866     0.1799 O.2     
   6 N6             2.6705     1.2401    -0.0163 N.2     
   7 N7             3.8101     1.8372    -0.0237 N.2     
   8 N8             6.6267     6.0896    -0.0305 N.ar    
   9 C9             0.0021    -0.0041     0.0020 C.3     
  10 C10            0.6216    -0.5051     1.2812 C.2     
  11 C11           -1.4075    -0.5249    -0.1112 C.2     
  12 C12            1.7084     2.1353    -0.0028 C.2     
  13 C13            4.6753     4.1702    -0.0203 C.ar    
  14 C14            3.6224     3.1345    -0.0152 C.2     
  15 C15            0.3960     0.2416     2.5706 C.3     
  16 C16           -3.0104    -2.2137    -0.6198 C.3     
  17 C17            6.0311     3.8185    -0.0345 C.ar    
  18 C18            4.3462     5.5316    -0.0114 C.ar    
  19 C19           -3.0614    -3.6593    -1.1183 C.3     
  20 C20            6.9807     4.8183    -0.0392 C.ar    
  21 C21            5.3615     6.4646    -0.0170 C.ar    
  22 H22            0.5883    -0.3548    -0.8473 H       
  23 H23            0.9182    -0.2669     3.3811 H       
  24 H24            0.7778     1.2579     2.4735 H       
  25 H25           -0.6713     0.2739     2.7899 H       
  26 H26           -3.4712    -2.1529     0.3662 H       
  27 H27           -3.5514    -1.5707    -1.3140 H       
  28 H28            6.3281     2.7802    -0.0414 H       
  29 H29            3.3129     5.8458    -0.0007 H       
  30 H30           -2.6006    -3.7201    -2.1042 H       
  31 H31           -2.5203    -4.3023    -0.4240 H       
  32 H32           -4.0995    -3.9854    -1.1817 H       
  33 H33            8.0286     4.5574    -0.0506 H       
  34 H34            5.1179     7.5168    -0.0099 H       
@<TRIPOS>BOND
   1    1    9 1
   2    1   12 1
   3    2   11 1
   4    2   16 1
   5    3   12 1
   6    3   14 1
   7    4   10 2
   8    5   11 2
   9    6    7 1
  10    6   12 2
  11    7   14 2
  12    8   20 ar
  13    8   21 ar
  14    9   10 1
  15    9   11 1
  16    9   22 1
  17   10   15 1
  18   13   14 1
  19   13   17 ar
  20   13   18 ar
  21   15   23 1
  22   15   24 1
  23   15   25 1
  24   16   19 1
  25   16   26 1
  26   16   27 1
  27   17   20 ar
  28   17   28 1
  29   18   21 ar
  30   18   29 1
  31   19   30 1
  32   19   31 1
  33   19   32 1
  34   20   33 1
  35   21   34 1

#	End of record

#	Name: 9549705
#	Creating user name:	landrgr1
#	Creation time:	28. 01. 2015 13:52

#	Modifying user name:	landrgr1
#	Modification time:	28. 01. 2015 13:52

#	Program:	corina 3.48 0006  22.01.2010

@<TRIPOS>MOLECULE
9549705
  38   41    0    0    0
SMALL
NO_CHARGES


@<TRIPOS>ATOM
   1 O1            -0.0162     1.3444     0.0094 O.3     
   2 O2            -4.6421    -0.5910     0.0535 O.2     
   3 O3            -3.6751     3.2503    -3.3242 O.2     
   4 N4            -2.4193    -0.3091     0.0231 N.am    
   5 N5            -0.9859    -2.1813    -0.0015 N.2     
   6 N6            -2.5435     1.0864     0.0323 N.pl3   
   7 C7            -3.3407    -2.5415     0.0244 C.ar    
   8 C8            -1.1738    -0.8825     0.0081 C.2     
   9 C9            -2.0192    -3.0451     0.0032 C.ar    
  10 C10           -3.5291    -1.0834     0.0348 C.2     
  11 C11            0.0021    -0.0041     0.0020 C.2     
  12 C12           -4.4215    -3.4205     0.0291 C.ar    
  13 C13           -1.8142    -4.4284    -0.0075 C.ar    
  14 C14           -4.1930    -4.7793     0.0135 C.ar    
  15 C15           -2.8968    -5.2781    -0.0025 C.ar    
  16 C16           -2.9131     1.7341    -1.0826 C.2     
  17 C17            1.3053    -0.4090    -0.0126 C.2     
  18 C18           -3.0370     3.1257    -1.0735 C.2     
  19 C19            2.0905     0.7562    -0.0138 C.2     
  20 C20            1.2422     1.8067    -0.0001 C.2     
  21 C21           -3.4404     3.8513    -2.2848 C.2     
  22 C22           -2.7827     3.8653     0.1023 C.2     
  23 C23           -3.5507     5.2511    -2.2243 C.2     
  24 C24           -2.9086     5.2186     0.0912 C.2     
  25 C25           -3.2856     5.9046    -1.0599 C.2     
  26 H26           -2.3623     1.5841     0.8449 H       
  27 H27           -5.4319    -3.0394     0.0456 H       
  28 H28           -0.8110    -4.8280    -0.0199 H       
  29 H29           -5.0293    -5.4627     0.0175 H       
  30 H30           -2.7365    -6.3461    -0.0112 H       
  31 H31           -3.1148     1.1799    -1.9874 H       
  32 H32            1.6636    -1.4278    -0.0212 H       
  33 H33            3.1694     0.8029    -0.0232 H       
  34 H34            1.5300     2.8476     0.0027 H       
  35 H35           -2.4891     3.3566     1.0087 H       
  36 H36           -3.8454     5.8082    -3.1014 H       
  37 H37           -2.7117     5.7744     0.9960 H       
  38 H38           -3.3742     6.9805    -1.0272 H       
@<TRIPOS>BOND
   1    1   11 1
   2    1   20 1
   3    2   10 2
   4    3   21 2
   5    4    6 1
   6    4    8 1
   7    4   10 am
   8    5    8 2
   9    5    9 1
  10    6   16 1
  11    6   26 1
  12    7    9 ar
  13    7   10 1
  14    7   12 ar
  15    8   11 1
  16    9   13 ar
  17   11   17 2
  18   12   14 ar
  19   12   27 1
  20   13   15 ar
  21   13   28 1
  22   14   15 ar
  23   14   29 1
  24   15   30 1
  25   16   18 2
  26   16   31 1
  27   17   19 1
  28   17   32 1
  29   18   21 1
  30   18   22 1
  31   19   20 2
  32   19   33 1
  33   20   34 1
  34   21   23 1
  35   22   24 2
  36   22   35 1
  37   23   25 2
  38   23   36 1
  39   24   25 1
  40   24   37 1
  41   25   38 1

#	End of record

#	Name: 9549703
#	Creating user name:	landrgr1
#	Creation time:	28. 01. 2015 13:52

#	Modifying user name:	landrgr1
#	Modification time:	28. 01. 2015 13:52

#	Program:	corina 3.48 0006  22.01.2010

@<TRIPOS>MOLECULE
9549703
  50   52    0    0    0
SMALL
NO_CHARGES


@<TRIPOS>ATOM
   1 O1            -1.5504     1.8923    -1.1171 O.2     
   2 O2            -3.6271    -1.8225     0.8054 O.2     
   3 O3             1.1567    -0.7487    -0.5273 O.3     
   4 N4            -3.7377     1.9155    -0.7084 N.am    
   5 N5            -0.0717    -0.0488    -0.4483 N.pl3   
   6 C6            -4.8669     1.2975    -0.2390 C.2     
   7 C7            -4.8562     0.0410     0.2747 C.2     
   8 C8            -2.4190    -0.0487    -0.1539 C.2     
   9 C9            -2.5336     1.3139    -0.6914 C.2     
  10 C10           -3.6502    -0.6923     0.3454 C.2     
  11 C11           -6.1491     2.0291    -0.2939 C.ar    
  12 C12           -3.8404     3.2118    -1.2274 C.ar    
  13 C13           -1.2012    -0.7052    -0.1174 C.2     
  14 C14           -6.1380    -0.5755     0.7727 C.3     
  15 C15           -7.2522     1.4638    -0.9368 C.ar    
  16 C16           -6.2652     3.2866     0.3020 C.ar    
  17 C17           -3.2288     4.2735    -0.5738 C.ar    
  18 C18           -4.5493     3.4377    -2.4000 C.ar    
  19 C19           -1.1382    -2.1541     0.2922 C.3     
  20 C20           -8.4466     2.1522    -0.9839 C.ar    
  21 C21           -7.4655     3.9640     0.2474 C.ar    
  22 C22           -3.3320     5.5510    -1.0883 C.ar    
  23 C23           -4.6489     4.7175    -2.9094 C.ar    
  24 C24           -8.5532     3.4002    -0.3959 C.ar    
  25 C25           -4.0435     5.7735    -2.2531 C.ar    
  26 C26            2.2705     0.0708    -0.8877 C.3     
  27 C27            3.5181    -0.7727    -0.9417 C.2     
  28 C28            4.3512    -0.6465    -1.9448 C.2     
  29 H29           -6.6598    -1.0499    -0.0584 H       
  30 H30           -5.9105    -1.3227     1.5329 H       
  31 H31           -6.7709     0.2003     1.2036 H       
  32 H32           -7.1703     0.4899    -1.3965 H       
  33 H33           -5.4172     3.7276     0.8048 H       
  34 H34           -2.6733     4.1005     0.3361 H       
  35 H35           -5.0220     2.6133    -2.9132 H       
  36 H36           -0.0974    -2.4751     0.3334 H       
  37 H37           -1.5946    -2.2741     1.2747 H       
  38 H38           -1.6771    -2.7611    -0.4353 H       
  39 H39           -9.3005     1.7162    -1.4812 H       
  40 H40           -7.5567     4.9367     0.7079 H       
  41 H41           -0.1002     0.9032    -0.6322 H       
  42 H42           -2.8569     6.3772    -0.5803 H       
  43 H43           -5.2001     4.8939    -3.8212 H       
  44 H44           -9.4907     3.9349    -0.4357 H       
  45 H45           -4.1228     6.7734    -2.6534 H       
  46 H46            2.0914     0.5177    -1.8657 H       
  47 H47            2.3967     0.8592    -0.1456 H       
  48 H48            3.7255    -1.4812    -0.1534 H       
  49 H49            5.2453    -1.2510    -1.9835 H       
  50 H50            4.1438     0.0621    -2.7331 H       
@<TRIPOS>BOND
   1    1    9 2
   2    2   10 2
   3    3    5 1
   4    3   26 1
   5    4    6 1
   6    4    9 am
   7    4   12 1
   8    5   13 1
   9    5   41 1
  10    6    7 2
  11    6   11 1
  12    7   10 1
  13    7   14 1
  14    8    9 1
  15    8   10 1
  16    8   13 2
  17   11   15 ar
  18   11   16 ar
  19   12   17 ar
  20   12   18 ar
  21   13   19 1
  22   14   29 1
  23   14   30 1
  24   14   31 1
  25   15   20 ar
  26   15   32 1
  27   16   21 ar
  28   16   33 1
  29   17   22 ar
  30   17   34 1
  31   18   23 ar
  32   18   35 1
  33   19   36 1
  34   19   37 1
  35   19   38 1
  36   20   24 ar
  37   20   39 1
  38   21   24 ar
  39   21   40 1
  40   22   25 ar
  41   22   42 1
  42   23   25 ar
  43   23   43 1
  44   24   44 1
  45   25   45 1
  46   26   27 1
  47   26   46 1
  48   26   47 1
  49   27   28 2
  50   27   48 1
  51   28   49 1
  52   28   50 1

#	End of record

#	Name: 9549696
#	Creating user name:	landrgr1
#	Creation time:	28. 01. 2015 13:52

#	Modifying user name:	landrgr1
#	Modification time:	28. 01. 2015 13:52

#	Program:	corina 3.48 0006  22.01.2010

@<TRIPOS>MOLECULE
9549696
  54   57    0    0    0
SMALL
NO_CHARGES


@<TRIPOS>ATOM
   1 S1            -0.0257     1.3429    -0.0439 S.o2    
   2 O2            -4.9917     3.8504    -2.5402 O.3     
   3 O3            -4.5269     3.8170    -0.3645 O.2     
   4 O4            -0.0101    -0.0769    -0.1007 O.2     
   5 O5             1.1420     2.1519    -0.0098 O.2     
   6 N6            -0.9770     1.8861    -1.3046 N.am    
   7 C7            -6.6451     5.3914    -3.3959 C.3     
   8 C8            -6.2333     4.4874    -2.2322 C.3     
   9 C9            -7.9744     6.0733    -3.0662 C.3     
  10 C10           -8.6392     4.1059    -1.6771 C.3     
  11 C11           -7.3099     3.4239    -2.0068 C.3     
  12 C12           -9.0511     5.0099    -2.8407 C.3     
  13 C13           -5.5684     6.4548    -3.6213 C.3     
  14 C14           -9.7159     3.0425    -1.4516 C.3     
  15 C15           -5.9124     7.2725    -4.8679 C.3     
  16 C16           -5.5041     7.3812    -2.4054 C.3     
  17 C17           -2.9467     2.9189    -1.7324 C.2     
  18 C18           -2.0973     2.4401    -0.7527 C.2     
  19 C19           -2.3380     2.6630    -3.0870 C.3     
  20 C20           -1.0061     1.9631    -2.7691 C.3     
  21 C21           -4.1841     3.5470    -1.5013 C.2     
  22 C22           -2.1564     2.4085     0.7342 C.ar    
  23 C23           -1.0375     1.8098     1.3307 C.ar    
  24 C24           -3.1682     2.8937     1.5807 C.ar    
  25 C25           -0.9095     1.6903     2.6880 C.ar    
  26 C26           -3.0437     2.7719     2.9466 C.ar    
  27 C27           -1.9121     2.1742     3.5162 C.ar    
  28 H28           -6.7585     4.7919    -4.2992 H       
  29 H29           -6.1199     5.0868    -1.3290 H       
  30 H30           -7.8610     6.6728    -2.1629 H       
  31 H31           -8.2678     6.7174    -3.8952 H       
  32 H32           -8.5258     4.7054    -0.7738 H       
  33 H33           -7.4233     2.8245    -2.9100 H       
  34 H34           -7.0165     2.7799    -1.1778 H       
  35 H35           -9.9981     5.4958    -2.6058 H       
  36 H36           -9.1645     4.4105    -3.7440 H       
  37 H37           -4.6022     5.9698    -3.7602 H       
  38 H38           -9.4225     2.3985    -0.6226 H       
  39 H39          -10.6629     3.5284    -1.2167 H       
  40 H40           -9.8293     2.4430    -2.3549 H       
  41 H41           -6.0499     6.6017    -5.7160 H       
  42 H42           -6.8320     7.8311    -4.6936 H       
  43 H43           -5.1004     7.9673    -5.0821 H       
  44 H44           -5.2590     6.7986    -1.5173 H       
  45 H45           -4.7370     8.1388    -2.5660 H       
  46 H46           -6.4703     7.8661    -2.2666 H       
  47 H47           -2.9808     2.0104    -3.6778 H       
  48 H48           -2.1610     3.6027    -3.6103 H       
  49 H49           -0.1675     2.5548    -3.1362 H       
  50 H50           -0.9876     0.9636    -3.2036 H       
  51 H51           -4.0447     3.3631     1.1591 H       
  52 H52           -0.0336     1.2218     3.1119 H       
  53 H53           -3.8264     3.1481     3.5887 H       
  54 H54           -1.8208     2.0848     4.5886 H       
@<TRIPOS>BOND
   1    1    4 2
   2    1    5 2
   3    1    6 am
   4    1   23 1
   5    2    8 1
   6    2   21 1
   7    3   21 2
   8    6   18 1
   9    6   20 1
  10    7    8 1
  11    7    9 1
  12    7   13 1
  13    7   28 1
  14    8   11 1
  15    8   29 1
  16    9   12 1
  17    9   30 1
  18    9   31 1
  19   10   11 1
  20   10   12 1
  21   10   14 1
  22   10   32 1
  23   11   33 1
  24   11   34 1
  25   12   35 1
  26   12   36 1
  27   13   15 1
  28   13   16 1
  29   13   37 1
  30   14   38 1
  31   14   39 1
  32   14   40 1
  33   15   41 1
  34   15   42 1
  35   15   43 1
  36   16   44 1
  37   16   45 1
  38   16   46 1
  39   17   18 2
  40   17   19 1
  41   17   21 1
  42   18   22 1
  43   19   20 1
  44   19   47 1
  45   19   48 1
  46   20   49 1
  47   20   50 1
  48   22   23 ar
  49   22   24 ar
  50   23   25 ar
  51   24   26 ar
  52   24   51 1
  53   25   27 ar
  54   25   52 1
  55   26   27 ar
  56   26   53 1
  57   27   54 1

#	End of record

#	Name: 9549693
#	Creating user name:	landrgr1
#	Creation time:	28. 01. 2015 13:52

#	Modifying user name:	landrgr1
#	Modification time:	28. 01. 2015 13:52

#	Program:	corina 3.48 0006  22.01.2010

@<TRIPOS>MOLECULE
9549693
  39   40    0    0    0
SMALL
NO_CHARGES


@<TRIPOS>ATOM
   1 O1            -0.5098     1.1962     0.5152 O.3     
   2 O2             0.5604    -0.7339     0.6291 O.2     
   3 O3            -0.7445    -4.3573     1.0508 O.2     
   4 N4            -6.0629    -1.6419    -0.4320 N.pl3   
   5 N5            -1.3959    -2.3331    -0.0672 N.pl3   
   6 C6            -2.8177    -0.6532     0.9995 C.3     
   7 C7            -4.0855    -1.3128     0.5212 C.2     
   8 C8            -1.6998    -0.9009    -0.0153 C.3     
   9 C9            -4.4723    -2.7105     0.7284 C.ar    
  10 C10           -5.7257    -2.8630     0.1076 C.ar    
  11 C11           -5.0744    -0.7311    -0.1757 C.2     
  12 C12           -3.8747    -3.7982     1.3674 C.ar    
  13 C13           -0.4669    -0.1404     0.3999 C.2     
  14 C14           -6.3552    -4.1028     0.1387 C.ar    
  15 C15           -0.8441    -2.8723    -1.1903 C.2     
  16 C16           -4.5109    -5.0075     1.3859 C.ar    
  17 C17           -5.7470    -5.1633     0.7744 C.ar    
  18 C18           -0.7086    -2.0383    -2.4382 C.3     
  19 C19           -0.4171    -4.1587    -1.1852 C.2     
  20 C20           -0.3707    -4.8771     0.0178 C.2     
  21 C21            0.1425    -6.2940     0.0300 C.3     
  22 H22           -2.9830     0.4191     1.1035 H       
  23 H23           -2.5319    -1.0721     1.9644 H       
  24 H24           -2.0214    -0.5619    -1.0001 H       
  25 H25           -5.0877     0.3027    -0.4880 H       
  26 H26           -6.8779    -1.4560    -0.9241 H       
  27 H27           -1.5874    -2.8976     0.6981 H       
  28 H28           -2.9125    -3.6846     1.8445 H       
  29 H29           -7.3176    -4.2339    -0.3334 H       
  30 H30           -4.0481    -5.8487     1.8805 H       
  31 H31           -6.2375    -6.1252     0.7978 H       
  32 H32            0.2541    -1.5273    -2.4310 H       
  33 H33           -0.7711    -2.6832    -3.3148 H       
  34 H34           -1.5110    -1.3013    -2.4715 H       
  35 H35           -0.1126    -4.6302    -2.1079 H       
  36 H36            0.3060     1.6401     0.7844 H       
  37 H37           -0.6862    -6.9820    -0.1373 H       
  38 H38            0.8835    -6.4188    -0.7596 H       
  39 H39            0.6014    -6.5059     0.9957 H       
@<TRIPOS>BOND
   1    1   13 1
   2    1   36 1
   3    2   13 2
   4    3   20 2
   5    4   10 1
   6    4   11 1
   7    4   26 1
   8    5    8 1
   9    5   15 1
  10    5   27 1
  11    6    7 1
  12    6    8 1
  13    6   22 1
  14    6   23 1
  15    7    9 1
  16    7   11 2
  17    8   13 1
  18    8   24 1
  19    9   10 ar
  20    9   12 ar
  21   10   14 ar
  22   11   25 1
  23   12   16 ar
  24   12   28 1
  25   14   17 ar
  26   14   29 1
  27   15   18 1
  28   15   19 2
  29   16   17 ar
  30   16   30 1
  31   17   31 1
  32   18   32 1
  33   18   33 1
  34   18   34 1
  35   19   20 1
  36   19   35 1
  37   20   21 1
  38   21   37 1
  39   21   38 1
  40   21   39 1

#	End of record

#	Name: 9549678
#	Creating user name:	landrgr1
#	Creation time:	28. 01. 2015 13:52

#	Modifying user name:	landrgr1
#	Modification time:	28. 01. 2015 13:52

#	Program:	corina 3.48 0006  22.01.2010

@<TRIPOS>MOLECULE
9549678
  53   54    0    0    0
SMALL
NO_CHARGES


@<TRIPOS>ATOM
   1 S1             1.5486     3.5425     0.5396 S.o2    
   2 O2             4.1271     3.3824    -5.6346 O.2     
   3 O3             1.7801     2.2772     1.1434 O.2     
   4 O4             2.5540     4.1782    -0.2377 O.2     
   5 O5             1.9529     1.9272    -1.8856 O.2     
   6 N6             5.7314     2.2548    -6.6778 N.am    
   7 N7             0.3181     3.2642    -0.5331 N.am    
   8 N8             2.5228     2.3738    -3.9856 N.am    
   9 C9             6.0693     3.4155    -7.5053 C.3     
  10 C10            7.5246     3.3076    -7.9653 C.3     
  11 C11            0.1784     4.0716    -1.6543 C.ar    
  12 C12            5.1498     3.4556    -8.7275 C.3     
  13 C13            0.9073     3.7914    -2.8211 C.ar    
  14 C14            4.4002     1.1724    -4.9352 C.ar    
  15 C15            4.7405     2.3411    -5.7684 C.2     
  16 C16            3.2993     1.2214    -4.0664 C.ar    
  17 C17            8.4510     3.3928    -6.7507 C.3     
  18 C18            1.8251     2.6389    -2.8633 C.2     
  19 C19           -0.6876     5.1574    -1.6293 C.ar    
  20 C20           -0.6231     2.1661    -0.2993 C.3     
  21 C21            0.7568     4.6117    -3.9420 C.ar    
  22 C22            5.1682     0.0085    -5.0105 C.ar    
  23 C23            2.9887     0.1148    -3.2877 C.ar    
  24 C24            0.8458     4.7033     1.7435 C.3     
  25 C25           -0.8251     5.9580    -2.7449 C.ar    
  26 C26           -0.1031     5.6873    -3.8962 C.ar    
  27 C27            4.8451    -1.0802    -4.2293 C.ar    
  28 C28            3.7608    -1.0268    -3.3688 C.ar    
  29 H29            5.9392     4.3274    -6.9226 H       
  30 H30            7.6759     2.3541    -8.4714 H       
  31 H31            7.7500     4.1233    -8.6522 H       
  32 H32            6.2207     1.4241    -6.7845 H       
  33 H33            5.2800     2.5437    -9.3102 H       
  34 H34            4.1131     3.5325    -8.3998 H       
  35 H35            5.4013     4.3193    -9.3432 H       
  36 H36            8.2256     2.5770    -6.0638 H       
  37 H37            9.4878     3.3159    -7.0784 H       
  38 H38            8.2997     4.3463    -6.2445 H       
  39 H39            2.4838     2.9861    -4.7369 H       
  40 H40           -1.2542     5.3751    -0.7359 H       
  41 H41           -1.4645     2.5283     0.2915 H       
  42 H42           -0.9861     1.7889    -1.2553 H       
  43 H43           -0.1190     1.3641     0.2400 H       
  44 H44            1.3142     4.4031    -4.8433 H       
  45 H45            6.0144    -0.0385    -5.6799 H       
  46 H46            2.1425     0.1472    -2.6174 H       
  47 H47            1.5961     4.9447     2.4963 H       
  48 H48            0.5378     5.6152     1.2319 H       
  49 H49           -0.0190     4.2474     2.2256 H       
  50 H50           -1.5000     6.8009    -2.7205 H       
  51 H51           -0.2179     6.3205    -4.7636 H       
  52 H52            5.4401    -1.9796    -4.2887 H       
  53 H53            3.5154    -1.8850    -2.7608 H       
@<TRIPOS>BOND
   1    1    3 2
   2    1    4 2
   3    1    7 am
   4    1   24 1
   5    2   15 2
   6    5   18 2
   7    6    9 1
   8    6   15 am
   9    6   32 1
  10    7   11 1
  11    7   20 1
  12    8   16 1
  13    8   18 am
  14    8   39 1
  15    9   10 1
  16    9   12 1
  17    9   29 1
  18   10   17 1
  19   10   30 1
  20   10   31 1
  21   11   13 ar
  22   11   19 ar
  23   12   33 1
  24   12   34 1
  25   12   35 1
  26   13   18 1
  27   13   21 ar
  28   14   15 1
  29   14   16 ar
  30   14   22 ar
  31   16   23 ar
  32   17   36 1
  33   17   37 1
  34   17   38 1
  35   19   25 ar
  36   19   40 1
  37   20   41 1
  38   20   42 1
  39   20   43 1
  40   21   26 ar
  41   21   44 1
  42   22   27 ar
  43   22   45 1
  44   23   28 ar
  45   23   46 1
  46   24   47 1
  47   24   48 1
  48   24   49 1
  49   25   26 ar
  50   25   50 1
  51   26   51 1
  52   27   28 ar
  53   27   52 1
  54   28   53 1

#	End of record

#	Name: 9549666
#	Creating user name:	landrgr1
#	Creation time:	28. 01. 2015 13:52

#	Modifying user name:	landrgr1
#	Modification time:	28. 01. 2015 13:52

#	Program:	corina 3.48 0006  22.01.2010

@<TRIPOS>MOLECULE
9549666
  50   53    0    0    0
SMALL
NO_CHARGES


@<TRIPOS>ATOM
   1 S1            -0.0218     1.7546     0.0117 S.3     
   2 O2             0.4459    -2.0153    -2.0468 O.3     
   3 O3            -1.0989     0.2077     4.4482 O.3     
   4 O4            -1.1929    -1.7933    -3.5371 O.2     
   5 O5             0.0159    -0.6390     2.7240 O.2     
   6 N6            -2.2087    -0.2971     0.9192 N.pl3   
   7 N7            -4.1511     0.5519     1.4705 N.pl3   
   8 N8            -3.7551    -0.1763    -0.8381 N.2     
   9 N9            -3.3229     0.5375     2.6003 N.2     
  10 C10           -1.2174    -0.8895     0.0081 C.3     
  11 C11           -1.6632    -1.0895    -1.4291 C.2     
  12 C12           -3.4352     0.0271     0.4284 C.2     
  13 C13            0.0021    -0.0041     0.0020 C.2     
  14 C14           -2.1681     0.0320     2.2575 C.2     
  15 C15           -2.9480    -0.7003    -1.7471 C.2     
  16 C16           -5.4702     1.0169     1.4172 C.ar    
  17 C17           -0.8070    -1.6449    -2.3910 C.2     
  18 C18            1.2646    -0.4342    -0.0123 C.2     
  19 C19           -3.4434    -0.8760    -3.1595 C.3     
  20 C20           -1.0135    -0.1560     3.1530 C.2     
  21 C21            2.2216     0.5659    -0.0161 C.2     
  22 C22            1.7362     1.8083    -0.0048 C.2     
  23 C23           -6.0754     1.5260     2.5591 C.ar    
  24 C24           -6.1750     0.9755     0.2210 C.ar    
  25 C25           -7.3771     1.9839     2.5031 C.ar    
  26 C26           -7.4764     1.4350     0.1719 C.ar    
  27 C27           -8.0779     1.9360     1.3120 C.ar    
  28 C28            0.0775    -0.0066     5.2720 C.3     
  29 C29            1.2635    -2.5738    -3.0771 C.3     
  30 C30           -0.2073     0.4634     6.6999 C.3     
  31 H31           -0.9237    -1.8591     0.4103 H       
  32 H32            1.5208    -1.4834    -0.0201 H       
  33 H33           -4.4709    -0.5191    -3.2311 H       
  34 H34           -2.8120    -0.3045    -3.8397 H       
  35 H35           -3.4058    -1.9315    -3.4291 H       
  36 H36            3.2810     0.3563    -0.0270 H       
  37 H37            2.3315     2.7094    -0.0060 H       
  38 H38           -5.5287     1.5633     3.4897 H       
  39 H39           -5.7057     0.5847    -0.6697 H       
  40 H40           -7.8483     2.3795     3.3907 H       
  41 H41           -8.0249     1.4034    -0.7579 H       
  42 H42           -9.0958     2.2947     1.2709 H       
  43 H43            0.3259    -1.0679     5.2816 H       
  44 H44            0.9150     0.5589     4.8636 H       
  45 H45            2.2413    -2.8274    -2.6677 H       
  46 H46            0.7894    -3.4735    -3.4695 H       
  47 H47            1.3833    -1.8465    -3.8802 H       
  48 H48            0.6758     0.3025     7.3183 H       
  49 H49           -0.4557     1.5247     6.6903 H       
  50 H50           -1.0448    -0.1021     7.1083 H       
@<TRIPOS>BOND
   1    1   13 1
   2    1   22 1
   3    2   17 1
   4    2   29 1
   5    3   20 1
   6    3   28 1
   7    4   17 2
   8    5   20 2
   9    6   10 1
  10    6   12 1
  11    6   14 1
  12    7    9 1
  13    7   12 1
  14    7   16 1
  15    8   12 2
  16    8   15 1
  17    9   14 2
  18   10   11 1
  19   10   13 1
  20   10   31 1
  21   11   15 2
  22   11   17 1
  23   13   18 2
  24   14   20 1
  25   15   19 1
  26   16   23 ar
  27   16   24 ar
  28   18   21 1
  29   18   32 1
  30   19   33 1
  31   19   34 1
  32   19   35 1
  33   21   22 2
  34   21   36 1
  35   22   37 1
  36   23   25 ar
  37   23   38 1
  38   24   26 ar
  39   24   39 1
  40   25   27 ar
  41   25   40 1
  42   26   27 ar
  43   26   41 1
  44   27   42 1
  45   28   30 1
  46   28   43 1
  47   28   44 1
  48   29   45 1
  49   29   46 1
  50   29   47 1
  51   30   48 1
  52   30   49 1
  53   30   50 1

#	End of record

#	Name: 9549665
#	Creating user name:	landrgr1
#	Creation time:	28. 01. 2015 13:52

#	Modifying user name:	landrgr1
#	Modification time:	28. 01. 2015 13:52

#	Program:	corina 3.48 0006  22.01.2010

@<TRIPOS>MOLECULE
9549665
  56   59    0    0    0
SMALL
NO_CHARGES


@<TRIPOS>ATOM
   1 O1            -0.0164     1.3562     0.0095 O.3     
   2 O2            -2.2792    -0.1285     0.0236 O.2     
   3 N3             1.3557    -8.8863    -0.0563 N.3     
   4 N4             6.0482    -8.8360    -0.1007 N.3     
   5 N5             3.7017    -8.8358    -0.0784 N.ar    
   6 N6             4.8315    -6.8295    -0.0792 N.ar    
   7 N7             2.5293    -6.8542    -0.0570 N.ar    
   8 N8             3.6586    -4.7972    -0.0576 N.pl3   
   9 N9             2.4380    -4.1098    -0.0423 N.pl3   
  10 C10           -0.6719    -8.3138    -1.2666 C.3     
  11 C11           -0.2614    -9.7746    -1.5896 C.3     
  12 C12            8.0632    -8.2329     1.1156 C.3     
  13 C13            7.6840    -9.7054     1.4236 C.3     
  14 C14            0.2001    -7.9707    -0.0404 C.3     
  15 C15            1.2488    -9.7587    -1.2451 C.3     
  16 C16            7.1840    -7.8959    -0.1070 C.3     
  17 C17            6.1738    -9.7181     1.0791 C.3     
  18 C18            2.5434    -8.1835    -0.0639 C.ar    
  19 C19            4.8457    -8.1588    -0.0861 C.ar    
  20 C20            3.6733    -6.1772    -0.0647 C.ar    
  21 C21            2.4237    -2.7681    -0.0354 C.2     
  22 C22            1.2048    -2.0816    -0.0202 C.2     
  23 C23            1.1886    -0.6681    -0.0129 C.2     
  24 C24           -0.0108    -2.7996    -0.0174 C.2     
  25 C25            0.0021    -0.0041     0.0020 C.2     
  26 C26           -1.1937    -2.1328    -0.0029 C.2     
  27 C27           -1.2109    -0.7269     0.0102 C.2     
  28 C28            1.2479     2.0223     0.0010 C.3     
  29 C29            1.0269     3.5362     0.0112 C.3     
  30 H30           -0.4384    -7.6540    -2.1022 H       
  31 H31           -1.7308    -8.2578    -1.0142 H       
  32 H32           -0.7990   -10.4803    -0.9564 H       
  33 H33           -0.4190   -10.0003    -2.6443 H       
  34 H34            7.8158    -7.5869     1.9580 H       
  35 H35            9.1207    -8.1518     0.8639 H       
  36 H36            8.2364   -10.3930     0.7831 H       
  37 H37            7.8465    -9.9385     2.4759 H       
  38 H38           -0.3742    -8.1143     0.8748 H       
  39 H39            0.5438    -6.9385    -0.1070 H       
  40 H40            1.8226    -9.3433    -2.0735 H       
  41 H41            1.5949   -10.7651    -1.0096 H       
  42 H42            7.7611    -8.0178    -1.0237 H       
  43 H43            6.8183    -6.8720    -0.0299 H       
  44 H44            5.5913    -9.3236     1.9117 H       
  45 H45            5.8492   -10.7292     0.8332 H       
  46 H46            4.4934    -4.3033    -0.0632 H       
  47 H47            1.6032    -4.6037    -0.0367 H       
  48 H48            3.3531    -2.2181    -0.0417 H       
  49 H49            2.1171    -0.1165    -0.0188 H       
  50 H50            0.0001    -3.8795    -0.0271 H       
  51 H51           -2.1229    -2.6833    -0.0012 H       
  52 H52            1.8173     1.7322     0.8840 H       
  53 H53            1.8003     1.7418    -0.8958 H       
  54 H54            0.4575     3.8262    -0.8718 H       
  55 H55            0.4745     3.8167     0.9081 H       
  56 H56            1.9912     4.0442     0.0048 H       
@<TRIPOS>BOND
   1    1   25 1
   2    1   28 1
   3    2   27 2
   4    3   14 1
   5    3   15 1
   6    3   18 1
   7    4   16 1
   8    4   17 1
   9    4   19 1
  10    5   18 ar
  11    5   19 ar
  12    6   19 ar
  13    6   20 ar
  14    7   18 ar
  15    7   20 ar
  16    8    9 1
  17    8   20 1
  18    8   46 1
  19    9   21 1
  20    9   47 1
  21   10   11 1
  22   10   14 1
  23   10   30 1
  24   10   31 1
  25   11   15 1
  26   11   32 1
  27   11   33 1
  28   12   13 1
  29   12   16 1
  30   12   34 1
  31   12   35 1
  32   13   17 1
  33   13   36 1
  34   13   37 1
  35   14   38 1
  36   14   39 1
  37   15   40 1
  38   15   41 1
  39   16   42 1
  40   16   43 1
  41   17   44 1
  42   17   45 1
  43   21   22 2
  44   21   48 1
  45   22   23 1
  46   22   24 1
  47   23   25 2
  48   23   49 1
  49   24   26 2
  50   24   50 1
  51   25   27 1
  52   26   27 1
  53   26   51 1
  54   28   29 1
  55   28   52 1
  56   28   53 1
  57   29   54 1
  58   29   55 1
  59   29   56 1

#	End of record

#	Name: 9549650
#	Creating user name:	landrgr1
#	Creation time:	28. 01. 2015 13:52

#	Modifying user name:	landrgr1
#	Modification time:	28. 01. 2015 13:52

#	Program:	corina 3.48 0006  22.01.2010

@<TRIPOS>MOLECULE
9549650
  55   55    0    0    0
SMALL
NO_CHARGES


@<TRIPOS>ATOM
   1 O1             0.0577     1.8609    -0.5733 O.3     
   2 O2             2.2011     2.0752    -1.0663 O.2     
   3 N3            -2.0181    -0.0805    -1.1899 N.3     
   4 C4            -1.0621    -0.2463    -0.0870 C.3     
   5 C5             2.3520     4.7006    -1.4002 C.3     
   6 C6            -1.5739    -0.8092    -2.3856 C.3     
   7 C7            -3.3659    -0.5031    -0.7863 C.3     
   8 C8             2.2171     6.1949    -1.5420 C.ar    
   9 C9             0.2614     0.4282    -0.4536 C.3     
  10 C10            2.3076     7.0229    -0.4100 C.ar    
  11 C11            0.9939     4.0984    -1.0344 C.3     
  12 C12            2.1782     8.4261    -0.5635 C.ar    
  13 C13            2.0125     6.7499    -2.7676 C.ar    
  14 C14            1.1288     2.6041    -0.8926 C.2     
  15 C15           -2.3501    -0.3088    -3.6055 C.3     
  16 C16           -3.9884     0.5676     0.1120 C.3     
  17 C17            2.5235     6.4873     0.8708 C.ar    
  18 C18            1.9617     8.9620    -1.8447 C.ar    
  19 C19            1.8857     8.1297    -2.9186 C.ar    
  20 C20            2.2682     9.2541     0.5680 C.ar    
  21 C21            2.6052     7.3204     1.9443 C.ar    
  22 C22            2.4780     8.6996     1.7934 C.ar    
  23 H23           -1.4657     0.2122     0.8157 H       
  24 H24           -0.8919    -1.3083     0.0898 H       
  25 H25            2.6957     4.2757    -2.3433 H       
  26 H26            3.0734     4.4738    -0.6152 H       
  27 H27           -0.5080    -0.6404    -2.5389 H       
  28 H28           -1.7573    -1.8751    -2.2505 H       
  29 H29           -3.9851    -0.6382    -1.6731 H       
  30 H30           -3.3032    -1.4442    -0.2401 H       
  31 H31            0.6205     0.0317    -1.4033 H       
  32 H32            0.9982     0.2298     0.3249 H       
  33 H33            0.6502     4.5233    -0.0913 H       
  34 H34            0.2725     4.3252    -1.8194 H       
  35 H35            1.9478     6.1116    -3.6364 H       
  36 H36           -2.0300    -0.8587    -4.4905 H       
  37 H37           -3.4170    -0.4654    -3.4466 H       
  38 H38           -2.1562     0.7543    -3.7485 H       
  39 H39           -3.4247     0.6338     1.0426 H       
  40 H40           -3.9617     1.5304    -0.3982 H       
  41 H41           -5.0223     0.3014     0.3316 H       
  42 H42            2.6237     5.4201     1.0031 H       
  43 H43            1.8612    10.0292    -1.9768 H       
  44 H44            1.7242     8.5445    -3.9026 H       
  45 H45            2.1719    10.3250     0.4660 H       
  46 H46            2.7708     6.9060     2.9278 H       
  47 H47            2.5471     9.3384     2.6615 H       
  48 O48           10.3970    19.2310     7.9485 O.3     
  49 O49            9.1497    15.7757     7.9418 O.3     
  50 O50           11.4734    17.2938     7.9278 O.2     
  51 O51            8.0734    17.7129     7.9625 O.2     
  52 C52           10.4152    17.8856     7.9411 C.2     
  53 C53            9.1315    17.1210     7.9492 C.2     
  54 H54           11.2525    19.6817     7.9427 H       
  55 H55            8.2942    15.3250     7.9476 H       
@<TRIPOS>BOND
   1    1    9 1
   2    1   14 1
   3    2   14 2
   4    3    4 1
   5    3    6 1
   6    3    7 1
   7    4    9 1
   8    4   23 1
   9    4   24 1
  10    5    8 1
  11    5   11 1
  12    5   25 1
  13    5   26 1
  14    6   15 1
  15    6   27 1
  16    6   28 1
  17    7   16 1
  18    7   29 1
  19    7   30 1
  20    8   10 ar
  21    8   13 ar
  22    9   31 1
  23    9   32 1
  24   10   12 ar
  25   10   17 ar
  26   11   14 1
  27   11   33 1
  28   11   34 1
  29   12   18 ar
  30   12   20 ar
  31   13   19 ar
  32   13   35 1
  33   15   36 1
  34   15   37 1
  35   15   38 1
  36   16   39 1
  37   16   40 1
  38   16   41 1
  39   17   21 ar
  40   17   42 1
  41   18   19 ar
  42   18   43 1
  43   19   44 1
  44   20   22 ar
  45   20   45 1
  46   21   22 ar
  47   21   46 1
  48   22   47 1
  49   48   52 1
  50   48   54 1
  51   49   53 1
  52   49   55 1
  53   50   52 2
  54   51   53 2
  55   52   53 1

#	End of record

#	Name: 9549632
#	Creating user name:	landrgr1
#	Creation time:	28. 01. 2015 13:52

#	Modifying user name:	landrgr1
#	Modification time:	28. 01. 2015 13:52

#	Program:	corina 3.48 0006  22.01.2010

@<TRIPOS>MOLECULE
9549632
  48   49    0    0    0
SMALL
NO_CHARGES


@<TRIPOS>ATOM
   1 Br1            0.0000     0.0000     0.0000 Br      
   2 H2             0.0000     1.5100     0.0000 H       
   3 O3             7.0415     9.7242     8.8580 O.3     
   4 O4             7.9029     7.8532     7.7758 O.3     
   5 O5            17.4459    10.0463     6.3978 O.3     
   6 N6            12.4731     7.7076     6.5564 N.2     
   7 C7             7.0609     8.2917     8.8502 C.3     
   8 C8             7.6156     7.7780    10.1803 C.3     
   9 C9             5.6418     7.7596     8.6409 C.3     
  10 C10            8.2511    10.3401     8.8498 C.2     
  11 C11            9.1388     8.4193     7.7290 C.2     
  12 C12            9.3177     9.7068     8.2862 C.2     
  13 C13            8.4090    11.6807     9.4441 C.ar    
  14 C14           10.1984     7.7497     7.1491 C.2     
  15 C15            9.6562    12.3111     9.4334 C.ar    
  16 C16            7.3108    12.3292    10.0157 C.ar    
  17 C17            9.7963    13.5646     9.9911 C.ar    
  18 C18            7.4661    13.5826    10.5695 C.ar    
  19 C19            8.7056    14.1980    10.5608 C.ar    
  20 C20           11.4644     8.3450     7.1084 C.2     
  21 C21           13.7092     8.2888     6.5166 C.ar    
  22 C22           14.8447     7.5455     6.8512 C.ar    
  23 C23           13.8429     9.6271     6.1357 C.ar    
  24 C24           16.2163     9.4678     6.4365 C.ar    
  25 C25           16.0895     8.1364     6.8096 C.ar    
  26 C26           15.0921    10.2088     6.0972 C.ar    
  27 C27           17.5050    11.4192     6.0056 C.3     
  28 H28            6.9833     8.1269    10.9967 H       
  29 H29            7.6293     6.6881    10.1716 H       
  30 H30            8.6295     8.1529    10.3203 H       
  31 H31            5.2548     8.1216     7.6884 H       
  32 H32            5.6595     6.6698     8.6353 H       
  33 H33            5.0000     8.1085     9.4499 H       
  34 H34           10.2872    10.1821     8.2649 H       
  35 H35           10.0500     6.7667     6.7271 H       
  36 H36           10.5084    11.8177     8.9898 H       
  37 H37            6.3429    11.8501    10.0232 H       
  38 H38           10.7595    14.0530     9.9835 H       
  39 H39            6.6183    14.0851    11.0112 H       
  40 H40            8.8214    15.1794    10.9966 H       
  41 H41           11.6128     9.3280     7.5304 H       
  42 H42           14.7470     6.5100     7.1422 H       
  43 H43           12.9691    10.2042     5.8716 H       
  44 H44           16.9674     7.5630     7.0679 H       
  45 H45           15.1965    11.2426     5.8027 H       
  46 H46           17.0986    11.5275     5.0000 H       
  47 H47           16.9198    12.0212     6.7008 H       
  48 H48           18.5416    11.7560     6.0168 H       
@<TRIPOS>BOND
   1    1    2 1
   2    3    7 1
   3    3   10 1
   4    4    7 1
   5    4   11 1
   6    5   24 1
   7    5   27 1
   8    6   20 2
   9    6   21 1
  10    7    8 1
  11    7    9 1
  12    8   28 1
  13    8   29 1
  14    8   30 1
  15    9   31 1
  16    9   32 1
  17    9   33 1
  18   10   12 2
  19   10   13 1
  20   11   12 1
  21   11   14 2
  22   12   34 1
  23   13   15 ar
  24   13   16 ar
  25   14   20 1
  26   14   35 1
  27   15   17 ar
  28   15   36 1
  29   16   18 ar
  30   16   37 1
  31   17   19 ar
  32   17   38 1
  33   18   19 ar
  34   18   39 1
  35   19   40 1
  36   20   41 1
  37   21   22 ar
  38   21   23 ar
  39   22   25 ar
  40   22   42 1
  41   23   26 ar
  42   23   43 1
  43   24   25 ar
  44   24   26 ar
  45   25   44 1
  46   26   45 1
  47   27   46 1
  48   27   47 1
  49   27   48 1

#	End of record

#	Name: 9549621
#	Creating user name:	landrgr1
#	Creation time:	28. 01. 2015 13:52

#	Modifying user name:	landrgr1
#	Modification time:	28. 01. 2015 13:52

#	Program:	corina 3.48 0006  22.01.2010

@<TRIPOS>MOLECULE
9549621
  36   36    0    0    0
SMALL
NO_CHARGES


@<TRIPOS>ATOM
   1 Cl1            0.0000     0.0000     0.0000 Cl      
   2 H2             0.0000     1.3700     0.0000 H       
   3 N3             9.2035     9.4995     7.1620 N.3     
   4 N4             7.0369     7.3168     8.2713 N.pl3   
   5 C5             9.2234     8.0307     7.1539 C.3     
   6 C6            10.5676    10.0446     7.1519 C.3     
   7 C7             7.8096     7.5091     7.1646 C.2     
   8 C8            10.5060    11.5733     7.1607 C.3     
   9 C9            11.9054    12.1325     7.1503 C.ar    
  10 C10            7.0906     7.1515     6.0812 C.2     
  11 C11            5.8232     6.8347     7.8796 C.2     
  12 C12            5.8279     6.7228     6.5357 C.2     
  13 C13            7.4454     7.5790     9.6536 C.3     
  14 C14           12.5358    12.3954     5.9485 C.ar    
  15 C15           12.5565    12.3878     8.3427 C.ar    
  16 C16           13.8194    12.9082     5.9390 C.ar    
  17 C17           13.8402    12.9007     8.3332 C.ar    
  18 C18           14.4725    13.1586     7.1313 C.ar    
  19 H19            9.7336     7.6792     6.2571 H       
  20 H20            9.7506     7.6696     8.0369 H       
  21 H21           11.1041     9.6975     8.0349 H       
  22 H22           11.0871     9.7070     6.2551 H       
  23 H23            9.9695    11.9204     6.2776 H       
  24 H24            9.9865    11.9109     8.0575 H       
  25 H25            8.6651     9.8581     6.3876 H       
  26 H26            7.4220     7.1872     5.0539 H       
  27 H27            5.0000     6.5858     8.5328 H       
  28 H28            5.0131     6.3700     5.9208 H       
  29 H29            7.1948     8.6064     9.9179 H       
  30 H30            6.9242     6.8943    10.3226 H       
  31 H31            8.5212     7.4315     9.7487 H       
  32 H32           12.0255    12.1997     5.0169 H       
  33 H33           12.0622    12.1869     9.2817 H       
  34 H34           14.3122    13.1129     5.0000 H       
  35 H35           14.3487    13.1005     9.2647 H       
  36 H36           15.4756    13.5590     7.1239 H       
@<TRIPOS>BOND
   1    1    2 1
   2    3    5 1
   3    3    6 1
   4    3   25 1
   5    4    7 1
   6    4   11 1
   7    4   13 1
   8    5    7 1
   9    5   19 1
  10    5   20 1
  11    6    8 1
  12    6   21 1
  13    6   22 1
  14    7   10 2
  15    8    9 1
  16    8   23 1
  17    8   24 1
  18    9   14 ar
  19    9   15 ar
  20   10   12 1
  21   10   26 1
  22   11   12 2
  23   11   27 1
  24   12   28 1
  25   13   29 1
  26   13   30 1
  27   13   31 1
  28   14   16 ar
  29   14   32 1
  30   15   17 ar
  31   15   33 1
  32   16   18 ar
  33   16   34 1
  34   17   18 ar
  35   17   35 1
  36   18   36 1

#	End of record

#	Name: 9549581
#	Creating user name:	landrgr1
#	Creation time:	28. 01. 2015 13:52

#	Modifying user name:	landrgr1
#	Modification time:	28. 01. 2015 13:52

#	Program:	corina 3.48 0006  22.01.2010

@<TRIPOS>MOLECULE
9549581
  62   64    0    0    0
SMALL
NO_CHARGES


@<TRIPOS>ATOM
   1 Cl1            0.0000     0.0000     0.0000 Cl      
   2 H2             0.0000     1.3700     0.0000 H       
   3 F3             6.4763    12.3347    10.9510 F       
   4 F4             6.5712    12.6347    13.2138 F       
   5 F5             5.0000    11.2436    12.3108 F       
   6 O6            12.2143    13.6810    16.0405 O.3     
   7 N7            11.7700     9.1290    12.7399 N.3     
   8 N8            13.9832     8.7746    10.9845 N.3     
   9 N9            10.8182    10.2577    16.0355 N.pl3   
  10 N10           10.8307     8.2283    15.3847 N.2     
  11 N11           10.8380     9.4859    17.0691 N.2     
  12 N12           10.8455     8.2612    16.6726 N.2     
  13 C13           13.1398     9.4068    13.1941 C.3     
  14 C14           11.6336     9.3861    11.2995 C.3     
  15 C15           10.7919     9.9099    13.5090 C.3     
  16 C16           14.1196     8.5176    12.4249 C.3     
  17 C17           12.6135     8.4969    10.5303 C.3     
  18 C18           14.9614     7.9937    10.2154 C.3     
  19 C19            9.4147     9.6936    12.9365 C.ar    
  20 C20           10.8133     9.4641    14.9484 C.2     
  21 C21           14.6372     8.0890     8.7468 C.ar    
  22 C22            8.5353    10.7547    12.8319 C.ar    
  23 C23            9.0330     8.4348    12.5108 C.ar    
  24 C24           10.7983    11.7226    16.0435 C.3     
  25 C25            7.2719    10.5562    12.3067 C.ar    
  26 C26            7.7699     8.2364    11.9857 C.ar    
  27 C27           15.1883     9.0997     7.9815 C.ar    
  28 C28           13.7932     7.1624     8.1638 C.ar    
  29 C29            6.8884     9.2968    11.8860 C.ar    
  30 C30           12.2337    12.2522    16.0327 C.3     
  31 C31            6.3127    11.7130    12.1935 C.3     
  32 C32           14.8909     9.1871     6.6344 C.ar    
  33 C33           13.4958     7.2498     6.8166 C.ar    
  34 C34           14.0428     8.2636     6.0524 C.ar    
  35 C35           13.5117    14.2799    16.0313 C.3     
  36 H36           13.3784    10.4544    13.0106 H       
  37 H37           13.2187     9.1970    14.2608 H       
  38 H38           10.6145     9.1612    10.9848 H       
  39 H39           11.8551    10.4334    11.0944 H       
  40 H40           11.0467    10.9682    13.4525 H       
  41 H41           13.8981     7.4702    12.6300 H       
  42 H42           15.1387     8.7425    12.7396 H       
  43 H43           12.5345     8.7066     9.4636 H       
  44 H44           12.3749     7.4492    10.7138 H       
  45 H45           15.9617     8.3885    10.3931 H       
  46 H46           14.9213     6.9507    10.5294 H       
  47 H47            8.8350    11.7388    13.1607 H       
  48 H48            9.7218     7.6066    12.5881 H       
  49 H49           10.2711    12.0837    15.1605 H       
  50 H50           10.2881    12.0741    16.9403 H       
  51 H51            7.4718     7.2532    11.6528 H       
  52 H52           15.8510     9.8212     8.4361 H       
  53 H53           13.3664     6.3700     8.7607 H       
  54 H54            5.9013     9.1417    11.4760 H       
  55 H55           12.7439    11.9006    15.1359 H       
  56 H56           12.7609    11.8911    16.9157 H       
  57 H57           15.3209     9.9772     6.0366 H       
  58 H58           12.8367     6.5257     6.3610 H       
  59 H59           13.8101     8.3321     5.0000 H       
  60 H60           13.4109    15.3653    16.0381 H       
  61 H61           14.0654    13.9609    16.9144 H       
  62 H62           14.0484    13.9705    15.1345 H       
@<TRIPOS>BOND
   1    1    2 1
   2    3   31 1
   3    4   31 1
   4    5   31 1
   5    6   30 1
   6    6   35 1
   7    7   13 1
   8    7   14 1
   9    7   15 1
  10    8   16 1
  11    8   17 1
  12    8   18 1
  13    9   11 1
  14    9   20 1
  15    9   24 1
  16   10   12 1
  17   10   20 2
  18   11   12 2
  19   13   16 1
  20   13   36 1
  21   13   37 1
  22   14   17 1
  23   14   38 1
  24   14   39 1
  25   15   19 1
  26   15   20 1
  27   15   40 1
  28   16   41 1
  29   16   42 1
  30   17   43 1
  31   17   44 1
  32   18   21 1
  33   18   45 1
  34   18   46 1
  35   19   22 ar
  36   19   23 ar
  37   21   27 ar
  38   21   28 ar
  39   22   25 ar
  40   22   47 1
  41   23   26 ar
  42   23   48 1
  43   24   30 1
  44   24   49 1
  45   24   50 1
  46   25   29 ar
  47   25   31 1
  48   26   29 ar
  49   26   51 1
  50   27   32 ar
  51   27   52 1
  52   28   33 ar
  53   28   53 1
  54   29   54 1
  55   30   55 1
  56   30   56 1
  57   32   34 ar
  58   32   57 1
  59   33   34 ar
  60   33   58 1
  61   34   59 1
  62   35   60 1
  63   35   61 1
  64   35   62 1

#	End of record

#	Name: 9549565
#	Creating user name:	landrgr1
#	Creation time:	28. 01. 2015 13:52

#	Modifying user name:	landrgr1
#	Modification time:	28. 01. 2015 13:52

#	Program:	corina 3.48 0006  22.01.2010

@<TRIPOS>MOLECULE
9549565
  47   48    0    0    0
SMALL
NO_CHARGES


@<TRIPOS>ATOM
   1 Cl1            0.0000     0.0000     0.0000 Cl      
   2 H2             0.0000     1.3700     0.0000 H       
   3 O3            13.5478    10.3632    13.0560 O.3     
   4 N4            10.0757    11.7342     8.3689 N.3     
   5 N5             9.4245     8.7243    10.4804 N.pl3   
   6 N6             9.4130     7.7303    12.4317 N.2     
   7 N7            11.4597     8.7901    11.8156 N.pl3   
   8 C8             9.6073    13.1248     8.4260 C.3     
   9 C9             9.6672    11.0873     7.1155 C.3     
  10 C10           10.2341    13.9230     7.2805 C.3     
  11 C11           10.2958    11.8247     5.9309 C.3     
  12 C12            9.8391    13.2861     5.9452 C.3     
  13 C13            9.6044    10.9717     9.5327 C.3     
  14 C14            9.8944     9.4846     9.3197 C.3     
  15 C15            8.1644     8.1730    10.6460 C.ar    
  16 C16           10.1487     8.4219    11.5977 C.2     
  17 C17            8.1756     7.5433    11.9018 C.ar    
  18 C18            7.0188     8.1416     9.8661 C.ar    
  19 C19            7.0260     6.8920    12.3545 C.ar    
  20 C20           12.1318     8.4047    13.0590 C.3     
  21 C21            5.8921     7.4911    10.3264 C.ar    
  22 C22            5.8955     6.8737    11.5680 C.ar    
  23 C23           13.5672     8.9343    13.0481 C.3     
  24 H24            8.5216    13.1464     8.3322 H       
  25 H25            9.8983    13.5672     9.3787 H       
  26 H26           10.0017    10.0499     7.1164 H       
  27 H27            8.5812    11.1185     7.0278 H       
  28 H28            9.8740    14.9513     7.3139 H       
  29 H29           11.3193    13.9133     7.3814 H       
  30 H30           11.3820    11.7820     6.0106 H       
  31 H31            9.9798    11.3538     5.0000 H       
  32 H32            8.7565    13.3307     5.8265 H       
  33 H33           10.3186    13.8256     5.1284 H       
  34 H34           10.1214    11.3182    10.4276 H       
  35 H35            8.5312    11.1190     9.6532 H       
  36 H36           10.9677     9.3374     9.1992 H       
  37 H37            9.3775     9.1382     8.4248 H       
  38 H38            7.0079     8.6254     8.9006 H       
  39 H39           11.9369     9.3042    11.1455 H       
  40 H40            7.0237     6.4040    13.3180 H       
  41 H41           11.5950     8.8275    13.9082 H       
  42 H42           12.1461     7.3180    13.1426 H       
  43 H43            5.0000     7.4676     9.7181 H       
  44 H44            5.0068     6.3700    11.9186 H       
  45 H45           14.0774     8.5828    12.1513 H       
  46 H46           14.0944     8.5732    13.9312 H       
  47 H47           14.4258    10.7685    13.0498 H       
@<TRIPOS>BOND
   1    1    2 1
   2    3   23 1
   3    3   47 1
   4    4    8 1
   5    4    9 1
   6    4   13 1
   7    5   14 1
   8    5   15 1
   9    5   16 1
  10    6   16 2
  11    6   17 1
  12    7   16 1
  13    7   20 1
  14    7   39 1
  15    8   10 1
  16    8   24 1
  17    8   25 1
  18    9   11 1
  19    9   26 1
  20    9   27 1
  21   10   12 1
  22   10   28 1
  23   10   29 1
  24   11   12 1
  25   11   30 1
  26   11   31 1
  27   12   32 1
  28   12   33 1
  29   13   14 1
  30   13   34 1
  31   13   35 1
  32   14   36 1
  33   14   37 1
  34   15   17 ar
  35   15   18 ar
  36   17   19 ar
  37   18   21 ar
  38   18   38 1
  39   19   22 ar
  40   19   40 1
  41   20   23 1
  42   20   41 1
  43   20   42 1
  44   21   22 ar
  45   21   43 1
  46   22   44 1
  47   23   45 1
  48   23   46 1

#	End of record

#	Name: 9549549
#	Creating user name:	landrgr1
#	Creation time:	28. 01. 2015 13:52

#	Modifying user name:	landrgr1
#	Modification time:	28. 01. 2015 13:52

#	Program:	corina 3.48 0006  22.01.2010

@<TRIPOS>MOLECULE
9549549
  53   56    0    0    0
SMALL
NO_CHARGES


@<TRIPOS>ATOM
   1 Cl1            0.0000     0.0000     0.0000 Cl      
   2 H2             0.0000     1.3700     0.0000 H       
   3 N3             8.9093    11.5309     7.2042 N.pl3   
   4 N4             6.7347     9.7379     6.2306 N.3     
   5 C5             7.7215     9.2473     7.2046 C.3     
   6 C6             8.9279    10.1582     7.1966 C.2     
   7 C7            10.2028     9.7153     7.1880 C.2     
   8 C8             8.1691     7.8398     6.7940 C.3     
   9 C9            11.0597    10.8824     7.1835 C.ar    
  10 C10           10.6000     8.2608     7.1903 C.3     
  11 C11           14.4187    12.5491     7.1561 C.3     
  12 C12           10.1923    12.0040     7.1945 C.ar    
  13 C13            9.3878     7.4277     7.6244 C.3     
  14 C14            7.6877    12.3496     7.2147 C.3     
  15 C15           12.9285    12.3256     7.1696 C.ar    
  16 C16           14.8044    13.3409     5.9050 C.3     
  17 C17           14.8279    13.3351     8.4034 C.3     
  18 C18            6.5583    11.5597     7.8778 C.3     
  19 C19           12.4493    11.0388     7.1711 C.ar    
  20 C20            5.8329    10.7212     6.8319 C.3     
  21 C21           16.3174    13.5679     5.8913 C.3     
  22 C22           16.3409    13.5620     8.3897 C.3     
  23 C23           16.7265    14.3539     7.1386 C.3     
  24 C24           10.7072    13.2988     7.1928 C.ar    
  25 C25           12.0855    13.4248     7.1798 C.ar    
  26 H26            7.2785     9.2312     8.2004 H       
  27 H27            7.3558     7.1351     6.9671 H       
  28 H28            8.4332     7.8367     5.7365 H       
  29 H29           14.9304    11.5867     7.1490 H       
  30 H30           10.9089     7.9637     6.1881 H       
  31 H31           11.4206     8.1062     7.8909 H       
  32 H32            9.1847     7.6034     8.6808 H       
  33 H33            9.5967     6.3700     7.4640 H       
  34 H34            7.8687    13.2666     7.7755 H       
  35 H35            7.4066    12.5974     6.1912 H       
  36 H36           14.5129    12.7810     5.0164 H       
  37 H37           14.2927    14.3033     5.9120 H       
  38 H38           14.3162    14.2975     8.4104 H       
  39 H39           14.5531    12.7710     9.2946 H       
  40 H40            7.1903    10.1162     5.4136 H       
  41 H41            6.9749    10.9043     8.6426 H       
  42 H42            5.8542    12.2520     8.3393 H       
  43 H43           13.1141    10.1877     7.1634 H       
  44 H44            5.4472    11.3774     6.0517 H       
  45 H45            5.0000    10.2009     7.3049 H       
  46 H46           16.8291    12.6055     5.8842 H       
  47 H47           16.5921    14.1320     5.0000 H       
  48 H48           16.6323    14.1220     9.2782 H       
  49 H49           16.8526    12.5996     8.3826 H       
  50 H50           17.8044    14.5155     7.1288 H       
  51 H51           16.2148    15.3163     7.1456 H       
  52 H52           10.0607    14.1640     7.2008 H       
  53 H53           12.5187    14.4141     7.1780 H       
@<TRIPOS>BOND
   1    1    2 1
   2    3    6 1
   3    3   12 1
   4    3   14 1
   5    4    5 1
   6    4   20 1
   7    4   40 1
   8    5    6 1
   9    5    8 1
  10    5   26 1
  11    6    7 2
  12    7    9 1
  13    7   10 1
  14    8   13 1
  15    8   27 1
  16    8   28 1
  17    9   12 ar
  18    9   19 ar
  19   10   13 1
  20   10   30 1
  21   10   31 1
  22   11   15 1
  23   11   16 1
  24   11   17 1
  25   11   29 1
  26   12   24 ar
  27   13   32 1
  28   13   33 1
  29   14   18 1
  30   14   34 1
  31   14   35 1
  32   15   19 ar
  33   15   25 ar
  34   16   21 1
  35   16   36 1
  36   16   37 1
  37   17   22 1
  38   17   38 1
  39   17   39 1
  40   18   20 1
  41   18   41 1
  42   18   42 1
  43   19   43 1
  44   20   44 1
  45   20   45 1
  46   21   23 1
  47   21   46 1
  48   21   47 1
  49   22   23 1
  50   22   48 1
  51   22   49 1
  52   23   50 1
  53   23   51 1
  54   24   25 ar
  55   24   52 1
  56   25   53 1

#	End of record

#	Name: 9549545
#	Creating user name:	landrgr1
#	Creation time:	28. 01. 2015 13:52

#	Modifying user name:	landrgr1
#	Modification time:	28. 01. 2015 13:52

#	Program:	corina 3.48 0006  22.01.2010

@<TRIPOS>MOLECULE
9549545
  43   44    0    0    0
SMALL
NO_CHARGES


@<TRIPOS>ATOM
   1 Cl1            0.0000     0.0000     0.0000 Cl      
   2 H2             0.0000     1.3700     0.0000 H       
   3 F3             5.0000    11.9727     7.5808 F       
   4 F4            12.7076     6.9892     8.7562 F       
   5 O5            10.3525     6.3700     7.3832 O.2     
   6 N6             7.1558     9.7308     8.4618 N.3     
   7 N7             9.2636     8.3049     7.3263 N.am    
   8 C8             7.2031     8.2721     8.6289 C.3     
   9 C9             8.5042    10.3133     8.4808 C.3     
  10 C10            7.9522     7.6498     7.4458 C.3     
  11 C11            9.3066     9.7747     7.2916 C.3     
  12 C12            6.3002    10.3502     9.4827 C.3     
  13 C13           10.3958     7.5777     7.2511 C.2     
  14 C14            6.4673    11.8472     9.4373 C.ar    
  15 C15           11.6892     8.2481     7.0082 C.ar    
  16 C16            5.8002    12.5898     8.4775 C.ar    
  17 C17            7.2817    12.4800    10.3569 C.ar    
  18 C18           12.8070     7.9204     7.7824 C.ar    
  19 C19           11.8037     9.2080     6.0008 C.ar    
  20 C20            5.9542    13.9650     8.4372 C.ar    
  21 C21            7.4348    13.8536    10.3157 C.ar    
  22 C22            6.7735    14.5953     9.3549 C.ar    
  23 C23           14.0140     8.5531     7.5482 C.ar    
  24 C24           13.0142     9.8303     5.7792 C.ar    
  25 C25           14.1157     9.5067     6.5524 C.ar    
  26 H26            7.7217     8.0289     9.5563 H       
  27 H27            6.1878     7.8770     8.6650 H       
  28 H28            8.4326    11.3987     8.4096 H       
  29 H29            9.0047    10.0417     9.4103 H       
  30 H30            7.3816     7.8029     6.5298 H       
  31 H31            8.0904     6.5828     7.6204 H       
  32 H32           10.3404    10.1125     7.3643 H       
  33 H33            8.8662    10.1320     6.3608 H       
  34 H34            5.2587    10.0948     9.2877 H       
  35 H35            6.5861     9.9825    10.4682 H       
  36 H36            7.7985    11.9015    11.1083 H       
  37 H37           10.9459     9.4624     5.3960 H       
  38 H38            5.4347    14.5451     7.6889 H       
  39 H39            8.0712    14.3473    11.0351 H       
  40 H40            6.8941    15.6680     9.3234 H       
  41 H41           14.8788     8.3021     8.1445 H       
  42 H42           13.1030    10.5728     5.0000 H       
  43 H43           15.0605     9.9984     6.3739 H       
@<TRIPOS>BOND
   1    1    2 1
   2    3   16 1
   3    4   18 1
   4    5   13 2
   5    6    8 1
   6    6    9 1
   7    6   12 1
   8    7   10 1
   9    7   11 1
  10    7   13 am
  11    8   10 1
  12    8   26 1
  13    8   27 1
  14    9   11 1
  15    9   28 1
  16    9   29 1
  17   10   30 1
  18   10   31 1
  19   11   32 1
  20   11   33 1
  21   12   14 1
  22   12   34 1
  23   12   35 1
  24   13   15 1
  25   14   16 ar
  26   14   17 ar
  27   15   18 ar
  28   15   19 ar
  29   16   20 ar
  30   17   21 ar
  31   17   36 1
  32   18   23 ar
  33   19   24 ar
  34   19   37 1
  35   20   22 ar
  36   20   38 1
  37   21   22 ar
  38   21   39 1
  39   22   40 1
  40   23   25 ar
  41   23   41 1
  42   24   25 ar
  43   24   42 1
  44   25   43 1

#	End of record

#	Name: 9549531
#	Creating user name:	landrgr1
#	Creation time:	28. 01. 2015 13:52

#	Modifying user name:	landrgr1
#	Modification time:	28. 01. 2015 13:52

#	Program:	corina 3.48 0006  22.01.2010

@<TRIPOS>MOLECULE
9549531
  44   46    0    0    0
SMALL
NO_CHARGES


@<TRIPOS>ATOM
   1 Cl1            0.0000     0.0000     0.0000 Cl      
   2 H2             0.0000     1.3700     0.0000 H       
   3 S3             6.8015    15.5681     7.2025 S.3     
   4 N4             7.7349    10.9209     7.6363 N.pl3   
   5 N5             9.6158    10.1218     6.8575 N.2     
   6 N6             9.0139    14.3799     7.1749 N.2     
   7 N7             9.3437    16.7396     7.1841 N.pl3   
   8 C8             8.4878    11.9720     7.1675 C.2     
   9 C9             8.4680     9.7797     7.4278 C.2     
  10 C10            9.6517    11.4427     6.6896 C.2     
  11 C11            8.1087    13.4012     7.1783 C.2     
  12 C12            6.4983    10.8542     8.2106 C.2     
  13 C13            7.9388     8.5330     7.8156 C.2     
  14 C14            6.7071     8.4813     8.3915 C.2     
  15 C15            5.9793     9.6668     8.5878 C.2     
  16 C16           10.7863    12.2217     6.0757 C.3     
  17 C17            6.8254    13.8064     7.1928 C.2     
  18 C18            8.5620    15.5959     7.1858 C.2     
  19 C19            8.7097    18.0603     7.1973 C.3     
  20 C20            6.1238     7.1570     8.8126 C.3     
  21 C21            9.7731    19.1281     7.1923 C.ar    
  22 C22           10.2490    19.6241     5.9930 C.ar    
  23 C23           10.2687    19.6156     8.3872 C.ar    
  24 C24           11.2245    20.6035     5.9885 C.ar    
  25 C25           11.2441    20.5950     8.3827 C.ar    
  26 C26           11.7238    21.0873     7.1833 C.ar    
  27 H27            5.9303    11.7598     8.3649 H       
  28 H28            8.5050     7.6272     7.6570 H       
  29 H29            5.0000     9.6278     9.0414 H       
  30 H30           10.6308    12.3036     5.0000 H       
  31 H31           10.8218    13.2188     6.5146 H       
  32 H32           11.7271    11.7062     6.2686 H       
  33 H33            5.9587    13.1621     7.1979 H       
  34 H34            8.0805    18.1701     6.3140 H       
  35 H35            8.0981    18.1607     8.0939 H       
  36 H36            6.4125     6.9437     9.8418 H       
  37 H37            5.0370     7.1996     8.7414 H       
  38 H38            6.5002     6.3700     8.1591 H       
  39 H39           10.3109    16.6660     7.1741 H       
  40 H40            9.8589    19.2461     5.0595 H       
  41 H41            9.8935    19.2314     9.3243 H       
  42 H42           11.5968    20.9906     5.0515 H       
  43 H43           11.6310    20.9761     9.3162 H       
  44 H44           12.4861    21.8523     7.1798 H       
@<TRIPOS>BOND
   1    1    2 1
   2    3   17 1
   3    3   18 1
   4    4    8 1
   5    4    9 1
   6    4   12 1
   7    5    9 2
   8    5   10 1
   9    6   11 1
  10    6   18 2
  11    7   18 1
  12    7   19 1
  13    7   39 1
  14    8   10 2
  15    8   11 1
  16    9   13 1
  17   10   16 1
  18   11   17 2
  19   12   15 2
  20   12   27 1
  21   13   14 2
  22   13   28 1
  23   14   15 1
  24   14   20 1
  25   15   29 1
  26   16   30 1
  27   16   31 1
  28   16   32 1
  29   17   33 1
  30   19   21 1
  31   19   34 1
  32   19   35 1
  33   20   36 1
  34   20   37 1
  35   20   38 1
  36   21   22 ar
  37   21   23 ar
  38   22   24 ar
  39   22   40 1
  40   23   25 ar
  41   23   41 1
  42   24   26 ar
  43   24   42 1
  44   25   26 ar
  45   25   43 1
  46   26   44 1

#	End of record

#	Name: 9549520
#	Creating user name:	landrgr1
#	Creation time:	28. 01. 2015 13:52

#	Modifying user name:	landrgr1
#	Modification time:	28. 01. 2015 13:52

#	Program:	corina 3.48 0006  22.01.2010

@<TRIPOS>MOLECULE
9549520
  45   47    0    0    0
SMALL
NO_CHARGES


@<TRIPOS>ATOM
   1 Cl1            0.0000     0.0000     0.0000 Cl      
   2 H2             0.0000     1.3700     0.0000 H       
   3 N3             8.2945     9.5003     8.4307 N.3     
   4 C4             8.3143     8.0371     8.4226 C.3     
   5 C5             9.2041     7.5543     9.5746 C.3     
   6 C6             6.8971     7.4951     8.6129 C.3     
   7 C7             8.8836     7.5306     7.0969 C.3     
   8 C8            10.6469     7.9458     9.2482 C.3     
   9 C9             6.0095     7.9697     7.4602 C.3     
  10 C10            7.9960     8.0054     5.9444 C.3     
  11 C11            6.5795     7.4595     6.1351 C.3     
  12 C12           10.6952     9.3860     8.7986 C.ar    
  13 C13            9.5639    10.0672     8.4216 C.ar    
  14 C14           11.5157     7.7727    10.4955 C.3     
  15 C15            9.6791    11.4179     8.0033 C.ar    
  16 C16           11.9427    10.0176     8.7746 C.ar    
  17 C17           10.9483    12.0416     7.9830 C.ar    
  18 C18           12.0806    11.3101     8.3804 C.ar    
  19 C19            8.5460    12.1463     7.6091 C.ar    
  20 C20           11.0537    13.3797     7.5664 C.ar    
  21 C21            8.6834    13.4423     7.2126 C.ar    
  22 C22            9.9335    14.0564     7.1904 C.ar    
  23 H23            8.8940     8.0303    10.5049 H       
  24 H24            9.1284     6.4711     9.6704 H       
  25 H25            6.9236     6.4055     8.6261 H       
  26 H26            6.4924     7.8600     9.5570 H       
  27 H27            9.8927     7.9203     6.9624 H       
  28 H28            8.9136     6.4411     7.1071 H       
  29 H29           11.0252     7.3047     8.4520 H       
  30 H30            5.0000     7.5813     7.5951 H       
  31 H31            5.9811     9.0593     7.4481 H       
  32 H32            7.9672     9.0950     5.9329 H       
  33 H33            8.4014     7.6423     5.0000 H       
  34 H34            7.7331     9.8584     7.6726 H       
  35 H35            6.6087     6.3700     6.1478 H       
  36 H36            5.9468     7.7963     5.3139 H       
  37 H37           11.4854     6.7319    10.8179 H       
  38 H38           12.5437     8.0515    10.2638 H       
  39 H39           11.1372     8.4115    11.2935 H       
  40 H40           12.8188     9.4636     9.0776 H       
  41 H41           13.0561    11.7735     8.3720 H       
  42 H42            7.5709    11.6821     7.6199 H       
  43 H43           12.0167    13.8680     7.5449 H       
  44 H44            7.8104    14.0017     6.9105 H       
  45 H45           10.0154    15.0848     6.8707 H       
@<TRIPOS>BOND
   1    1    2 1
   2    3    4 1
   3    3   13 1
   4    3   34 1
   5    4    5 1
   6    4    6 1
   7    4    7 1
   8    5    8 1
   9    5   23 1
  10    5   24 1
  11    6    9 1
  12    6   25 1
  13    6   26 1
  14    7   10 1
  15    7   27 1
  16    7   28 1
  17    8   12 1
  18    8   14 1
  19    8   29 1
  20    9   11 1
  21    9   30 1
  22    9   31 1
  23   10   11 1
  24   10   32 1
  25   10   33 1
  26   11   35 1
  27   11   36 1
  28   12   13 ar
  29   12   16 ar
  30   13   15 ar
  31   14   37 1
  32   14   38 1
  33   14   39 1
  34   15   17 ar
  35   15   19 ar
  36   16   18 ar
  37   16   40 1
  38   17   18 ar
  39   17   20 ar
  40   18   41 1
  41   19   21 ar
  42   19   42 1
  43   20   22 ar
  44   20   43 1
  45   21   22 ar
  46   21   44 1
  47   22   45 1

#	End of record

#	Name: 9549434
#	Creating user name:	landrgr1
#	Creation time:	28. 01. 2015 13:52

#	Modifying user name:	landrgr1
#	Modification time:	28. 01. 2015 13:52

#	Program:	corina 3.48 0006  22.01.2010

@<TRIPOS>MOLECULE
9549434
  51   52    0    0    0
SMALL
NO_CHARGES


@<TRIPOS>ATOM
   1 Cl1            0.0000     0.0000     0.0000 Cl      
   2 H2             0.0000     1.3700     0.0000 H       
   3 O3            13.5131    17.1190     7.6297 O.3     
   4 O4            13.5270    15.1990    11.3351 O.3     
   5 O5            13.5062    17.0652    10.1325 O.2     
   6 N6            12.2092    10.9721     7.7608 N.3     
   7 N7             9.9199     9.7102     6.6330 N.3     
   8 C8            12.1832     9.5185     7.5464 C.3     
   9 C9            11.3893    11.6644     6.7567 C.3     
  10 C10           10.7397     9.0179     7.6371 C.3     
  11 C11            9.9459    11.1638     6.8474 C.3     
  12 C12           13.5874    11.4803     7.7564 C.3     
  13 C13            8.6094     9.2269     6.6372 C.ar    
  14 C14           13.5672    12.9870     7.7315 C.ar    
  15 C15            8.3471     7.9224     6.2377 C.ar    
  16 C16            7.5663    10.0476     7.0464 C.ar    
  17 C17           13.5546    13.6921     8.9149 C.ar    
  18 C18           13.5672    13.6567     6.5184 C.ar    
  19 C19            7.0504     7.4477     6.2435 C.ar    
  20 C20            9.4764     7.0266     5.7980 C.3     
  21 C21            6.2715     9.5664     7.0498 C.ar    
  22 C22           13.5362    15.0895     8.8933 C.ar    
  23 C23            6.0133     8.2694     6.6461 C.ar    
  24 C24           13.5491    15.0366     6.4822 C.ar    
  25 C25           13.5308    15.7631     7.6637 C.ar    
  26 C26           13.5222    15.8505    10.1556 C.2     
  27 C27           13.5124    16.0126    12.5376 C.3     
  28 H28           12.5863     9.2891     6.5601 H       
  29 H29           12.7870     9.0275     8.3096 H       
  30 H30           11.4144    12.7379     6.9442 H       
  31 H31           11.7835    11.4594     5.7614 H       
  32 H32           10.3456     9.2229     8.6325 H       
  33 H33           10.7147     7.9444     7.4497 H       
  34 H34            9.3420    11.6548     6.0843 H       
  35 H35            9.5427    11.3931     7.8338 H       
  36 H36           14.1036    11.1387     8.6536 H       
  37 H37           14.1086    11.1094     6.8739 H       
  38 H38            7.7673    11.0608     7.3618 H       
  39 H39           13.5584    13.1659     9.8581 H       
  40 H40           13.5813    13.0958     5.5957 H       
  41 H41            6.8458     6.4337     5.9331 H       
  42 H42            9.8133     6.4255     6.6425 H       
  43 H43            9.1297     6.3700     5.0000 H       
  44 H44           10.3030     7.6364     5.4333 H       
  45 H45            5.4600    10.2039     7.3681 H       
  46 H46            5.0000     7.8959     6.6490 H       
  47 H47           13.5491    15.5512     5.5327 H       
  48 H48           14.3913    17.5237     7.6223 H       
  49 H49           13.5181    15.3651    13.4145 H       
  50 H50           14.3940    16.6534    12.5534 H       
  51 H51           12.6142    16.6300    12.5477 H       
@<TRIPOS>BOND
   1    1    2 1
   2    3   25 1
   3    3   48 1
   4    4   26 1
   5    4   27 1
   6    5   26 2
   7    6    8 1
   8    6    9 1
   9    6   12 1
  10    7   10 1
  11    7   11 1
  12    7   13 1
  13    8   10 1
  14    8   28 1
  15    8   29 1
  16    9   11 1
  17    9   30 1
  18    9   31 1
  19   10   32 1
  20   10   33 1
  21   11   34 1
  22   11   35 1
  23   12   14 1
  24   12   36 1
  25   12   37 1
  26   13   15 ar
  27   13   16 ar
  28   14   17 ar
  29   14   18 ar
  30   15   19 ar
  31   15   20 1
  32   16   21 ar
  33   16   38 1
  34   17   22 ar
  35   17   39 1
  36   18   24 ar
  37   18   40 1
  38   19   23 ar
  39   19   41 1
  40   20   42 1
  41   20   43 1
  42   20   44 1
  43   21   23 ar
  44   21   45 1
  45   22   25 ar
  46   22   26 1
  47   23   46 1
  48   24   25 ar
  49   24   47 1
  50   27   49 1
  51   27   50 1
  52   27   51 1

#	End of record

#	Name: 9549432
#	Creating user name:	landrgr1
#	Creation time:	28. 01. 2015 13:52

#	Modifying user name:	landrgr1
#	Modification time:	28. 01. 2015 13:52

#	Program:	corina 3.48 0006  22.01.2010

@<TRIPOS>MOLECULE
9549432
  40   41    0    0    0
SMALL
NO_CHARGES


@<TRIPOS>ATOM
   1 Cl1            0.0000     0.0000     0.0000 Cl      
   2 H2             0.0000     1.3700     0.0000 H       
   3 S3             7.7297    14.6293     6.9835 S.3     
   4 O4            12.8946     9.1808     8.1458 O.3     
   5 N5            10.5750    10.5048     6.9336 N.pl3   
   6 N6             8.2421    10.2096     6.9545 N.ar    
   7 N7             6.7594    11.9750     6.9785 N.ar    
   8 C8            12.2837     8.7552     6.9082 C.3     
   9 C9            12.5272     7.2307     6.8518 C.3     
  10 C10           13.7685     7.0154     7.7463 C.3     
  11 C11           10.7834     9.0547     6.9242 C.3     
  12 C12           14.1281     8.4352     8.2374 C.3     
  13 C13            9.2909    11.0189     6.9485 C.ar    
  14 C14            9.0762    12.4209     6.9588 C.ar    
  15 C15            7.7535    12.8720     6.9739 C.ar    
  16 C16           10.0247    13.5187     6.9556 C.2     
  17 C17            9.4808    14.7201     6.9673 C.2     
  18 C18           10.2645    16.0073     6.9662 C.3     
  19 C19            7.0104    10.6864     6.9692 C.ar    
  20 C20           10.5155    16.4504     5.5235 C.3     
  21 C21            5.8548     9.7191     6.9749 C.3     
  22 H22           12.7608     9.2473     6.0607 H       
  23 H23           11.6690     6.6918     7.2531 H       
  24 H24           12.7338     6.9146     5.8293 H       
  25 H25           13.5239     6.3700     8.5899 H       
  26 H26           14.5887     6.5928     7.1661 H       
  27 H27           10.3351     8.6174     7.8163 H       
  28 H28           10.3180     8.6265     6.0364 H       
  29 H29           14.8880     8.8783     7.5937 H       
  30 H30           14.4761     8.4028     9.2699 H       
  31 H31           11.3375    11.1044     6.9293 H       
  32 H32           11.0935    13.3640     6.9449 H       
  33 H33            9.6985    16.7777     7.4897 H       
  34 H34           11.2187    15.8521     7.4699 H       
  35 H35           11.0815    15.6799     5.0000 H       
  36 H36            9.5614    16.6056     5.0199 H       
  37 H37           11.0824    17.3814     5.5227 H       
  38 H38            5.5862     9.4799     8.0038 H       
  39 H39            5.0000    10.1713     6.4719 H       
  40 H40            6.1424     8.8064     6.4529 H       
@<TRIPOS>BOND
   1    1    2 1
   2    3   15 1
   3    3   17 1
   4    4    8 1
   5    4   12 1
   6    5   11 1
   7    5   13 1
   8    5   31 1
   9    6   13 ar
  10    6   19 ar
  11    7   15 ar
  12    7   19 ar
  13    8    9 1
  14    8   11 1
  15    8   22 1
  16    9   10 1
  17    9   23 1
  18    9   24 1
  19   10   12 1
  20   10   25 1
  21   10   26 1
  22   11   27 1
  23   11   28 1
  24   12   29 1
  25   12   30 1
  26   13   14 ar
  27   14   15 ar
  28   14   16 1
  29   16   17 2
  30   16   32 1
  31   17   18 1
  32   18   20 1
  33   18   33 1
  34   18   34 1
  35   19   21 1
  36   20   35 1
  37   20   36 1
  38   20   37 1
  39   21   38 1
  40   21   39 1
  41   21   40 1

#	End of record

#	Name: 9549420
#	Creating user name:	landrgr1
#	Creation time:	28. 01. 2015 13:52

#	Modifying user name:	landrgr1
#	Modification time:	28. 01. 2015 13:52

#	Program:	corina 3.48 0006  22.01.2010

@<TRIPOS>MOLECULE
9549420
  45   45    0    0    0
SMALL
NO_CHARGES


@<TRIPOS>ATOM
   1 F1            -2.3310     5.8539    -3.8473 F       
   2 O2            -0.4709     3.8506    -0.0137 O.2     
   3 N3            -0.1815     1.2427    -0.0702 N.3     
   4 N4            -1.7953     4.0936    -1.7770 N.am    
   5 C5             1.8951    -0.7901     0.9242 C.3     
   6 C6             2.5910     0.4574     1.5042 C.3     
   7 C7             0.4051    -0.7818     1.1534 C.3     
   8 C8             1.7841     1.7405     1.2424 C.3     
   9 C9            -0.2895    -0.1509    -0.0732 C.3     
  10 C10            1.2005     1.7559    -0.1482 C.3     
  11 C11           -1.0241     1.8383    -1.1158 C.3     
  12 C12           -1.0762     3.3327    -0.9283 C.2     
  13 C13           -1.9390     5.4658    -1.5369 C.ar    
  14 C14           -2.2084     6.3334    -2.5902 C.ar    
  15 C15           -1.8187     5.9624    -0.2468 C.ar    
  16 C16           -2.3500     7.6874    -2.3486 C.ar    
  17 C17           -1.9614     7.3168    -0.0127 C.ar    
  18 C18           -2.2234     8.1781    -1.0617 C.ar    
  19 H19            2.0864    -0.8336    -0.1480 H       
  20 H20            2.3184    -1.6790     1.3919 H       
  21 H21            2.7121     0.3280     2.5797 H       
  22 H22            3.5757     0.5585     1.0478 H       
  23 H23            0.0511    -1.8040     1.2872 H       
  24 H24            0.1763    -0.1957     2.0435 H       
  25 H25            0.9741     1.8058     1.9688 H       
  26 H26            2.4389     2.6035     1.3630 H       
  27 H27           -1.3443    -0.4256    -0.0645 H       
  28 H28            0.1702    -0.5409    -0.9814 H       
  29 H29            1.7937     1.1182    -0.8036 H       
  30 H30            1.1935     2.7756    -0.5333 H       
  31 H31           -0.6040     1.6093    -2.0952 H       
  32 H32           -2.0318     1.4282    -1.0478 H       
  33 H33           -2.2133     3.6908    -2.5542 H       
  34 H34           -1.6139     5.2908     0.5739 H       
  35 H35           -2.5591     8.3623    -3.1654 H       
  36 H36           -1.8681     7.7031     0.9916 H       
  37 H37           -2.3341     9.2361    -0.8753 H       
  38 O38           10.8993    18.1421     7.6004 O.3     
  39 O39            9.6521    14.6868     7.5938 O.3     
  40 O40           11.9757    16.2049     7.5797 O.2     
  41 O41            8.5757    16.6240     7.6145 O.2     
  42 C42           10.9175    16.7968     7.5930 C.2     
  43 C43            9.6338    16.0322     7.6012 C.2     
  44 H44           11.7548    18.5928     7.5947 H       
  45 H45            8.7965    14.2361     7.5995 H       
@<TRIPOS>BOND
   1    1   14 1
   2    2   12 2
   3    3    9 1
   4    3   10 1
   5    3   11 1
   6    4   12 am
   7    4   13 1
   8    4   33 1
   9    5    6 1
  10    5    7 1
  11    5   19 1
  12    5   20 1
  13    6    8 1
  14    6   21 1
  15    6   22 1
  16    7    9 1
  17    7   23 1
  18    7   24 1
  19    8   10 1
  20    8   25 1
  21    8   26 1
  22    9   27 1
  23    9   28 1
  24   10   29 1
  25   10   30 1
  26   11   12 1
  27   11   31 1
  28   11   32 1
  29   13   14 ar
  30   13   15 ar
  31   14   16 ar
  32   15   17 ar
  33   15   34 1
  34   16   18 ar
  35   16   35 1
  36   17   18 ar
  37   17   36 1
  38   18   37 1
  39   38   42 1
  40   38   44 1
  41   39   43 1
  42   39   45 1
  43   40   42 2
  44   41   43 2
  45   42   43 1

#	End of record

#	Name: 9549411
#	Creating user name:	landrgr1
#	Creation time:	28. 01. 2015 13:52

#	Modifying user name:	landrgr1
#	Modification time:	28. 01. 2015 13:52

#	Program:	corina 3.48 0006  22.01.2010

@<TRIPOS>MOLECULE
9549411
  67   68    0    0    0
SMALL
NO_CHARGES


@<TRIPOS>ATOM
   1 O1            -4.1551     1.4630    -4.7278 O.2     
   2 N2            -0.1009     0.7850    -0.2727 N.3     
   3 N3            -5.5867     2.3498    -6.7408 N.3     
   4 N4            -3.2031     3.3692    -4.1094 N.am    
   5 C5             0.4611    -0.1449     2.6001 C.3     
   6 C6             0.6968    -1.5141     1.9319 C.3     
   7 C7             1.0991     0.9891     1.8387 C.3     
   8 C8             0.5492    -1.4411     0.4025 C.3     
   9 C9             0.0626     1.5855     0.8615 C.3     
  10 C10           -0.6151    -0.5722    -0.0026 C.3     
  11 C11           -9.2523     3.2113    -9.3636 C.3     
  12 C12           -9.6672     4.1587   -10.4914 C.3     
  13 C13           -7.9343     2.5701    -9.6859 C.2     
  14 C14           -9.5350     3.4126   -11.8251 C.3     
  15 C15           -0.8803     1.4339    -1.2362 C.ar    
  16 C16           -8.0509     3.1462   -12.0856 C.3     
  17 C17           -7.1693     1.9229    -8.5602 C.3     
  18 C18           -7.4138     2.5379   -10.8706 C.2     
  19 C19           -6.3323     2.9807    -7.8381 C.3     
  20 C20           -1.1608     0.8041    -2.4419 C.ar    
  21 C21           -1.3786     2.7058    -0.9849 C.ar    
  22 C22           -1.9301     1.4447    -3.3926 C.ar    
  23 C23           -2.1478     3.3460    -1.9359 C.ar    
  24 C24           -2.4230     2.7187    -3.1437 C.ar    
  25 C25           -4.7698     3.3376    -6.0232 C.3     
  26 C26           -4.0212     2.6551    -4.9075 C.2     
  27 H27           -0.6119     0.0349     2.6661 H       
  28 H28            0.8748    -0.1690     3.6082 H       
  29 H29            1.7018    -1.8590     2.1750 H       
  30 H30           -0.0264    -2.2292     2.3241 H       
  31 H31            1.4264     1.7589     2.5376 H       
  32 H32            1.9560     0.6155     1.2781 H       
  33 H33            1.4645    -1.0310    -0.0241 H       
  34 H34            0.3955    -2.4469     0.0115 H       
  35 H35            0.3952     2.5763     0.5520 H       
  36 H36           -0.8957     1.6775     1.3726 H       
  37 H37           -1.3457    -0.5352     0.8055 H       
  38 H38           -1.0802    -0.9756    -0.9021 H       
  39 H39           -9.1629     3.7734    -8.4340 H       
  40 H40          -10.0108     2.4377    -9.2441 H       
  41 H41          -10.7018     4.4698   -10.3465 H       
  42 H42           -9.0156     5.0325   -10.4942 H       
  43 H43          -10.0731     2.4662   -11.7704 H       
  44 H44           -9.9442     4.0242   -12.6292 H       
  45 H45           -7.9490     2.4618   -12.9279 H       
  46 H46           -7.5515     4.0854   -12.3235 H       
  47 H47           -7.8696     1.4717    -7.8573 H       
  48 H48           -6.5121     1.1525    -8.9634 H       
  49 H49           -6.4617     2.0429   -10.9922 H       
  50 H50           -6.9896     3.7511    -7.4349 H       
  51 H51           -5.6320     3.4319    -8.5410 H       
  52 H52           -0.7768    -0.1865    -2.6358 H       
  53 H53           -1.1646     3.1937    -0.0454 H       
  54 H54           -2.1482     0.9550    -4.3302 H       
  55 H55           -2.5353     4.3350    -1.7405 H       
  56 H56           -6.2099     1.8689    -6.1096 H       
  57 H57           -4.0587     3.7913    -6.7135 H       
  58 H58           -5.4163     4.1105    -5.6075 H       
  59 H59           -3.1542     4.3334    -4.2033 H       
  60 O60            9.2796    13.9384     8.6289 O.3     
  61 O61            8.0324    10.4832     8.6222 O.3     
  62 O62           10.3560    12.0012     8.6082 O.2     
  63 O63            6.9560    12.4204     8.6429 O.2     
  64 C64            9.2978    12.5931     8.6215 C.2     
  65 C65            8.0141    11.8285     8.6296 C.2     
  66 H66           10.1351    14.3891     8.6231 H       
  67 H67            7.1768    10.0325     8.6280 H       
@<TRIPOS>BOND
   1    1   26 2
   2    2    9 1
   3    2   10 1
   4    2   15 1
   5    3   19 1
   6    3   25 1
   7    3   56 1
   8    4   24 1
   9    4   26 am
  10    4   59 1
  11    5    6 1
  12    5    7 1
  13    5   27 1
  14    5   28 1
  15    6    8 1
  16    6   29 1
  17    6   30 1
  18    7    9 1
  19    7   31 1
  20    7   32 1
  21    8   10 1
  22    8   33 1
  23    8   34 1
  24    9   35 1
  25    9   36 1
  26   10   37 1
  27   10   38 1
  28   11   12 1
  29   11   13 1
  30   11   39 1
  31   11   40 1
  32   12   14 1
  33   12   41 1
  34   12   42 1
  35   13   17 1
  36   13   18 2
  37   14   16 1
  38   14   43 1
  39   14   44 1
  40   15   20 ar
  41   15   21 ar
  42   16   18 1
  43   16   45 1
  44   16   46 1
  45   17   19 1
  46   17   47 1
  47   17   48 1
  48   18   49 1
  49   19   50 1
  50   19   51 1
  51   20   22 ar
  52   20   52 1
  53   21   23 ar
  54   21   53 1
  55   22   24 ar
  56   22   54 1
  57   23   24 ar
  58   23   55 1
  59   25   26 1
  60   25   57 1
  61   25   58 1
  62   60   64 1
  63   60   66 1
  64   61   65 1
  65   61   67 1
  66   62   64 2
  67   63   65 2
  68   64   65 1

#	End of record

#	Name: 9549404
#	Creating user name:	landrgr1
#	Creation time:	28. 01. 2015 13:52

#	Modifying user name:	landrgr1
#	Modification time:	28. 01. 2015 13:52

#	Program:	corina 3.48 0006  22.01.2010

@<TRIPOS>MOLECULE
9549404
  63   64    0    0    0
SMALL
NO_CHARGES


@<TRIPOS>ATOM
   1 O1             0.3578     3.8412    -0.3470 O.2     
   2 N2             0.4282     1.2176    -0.3463 N.3     
   3 N3             4.4300     5.9182     1.0239 N.3     
   4 N4             2.5322     4.2492    -0.1799 N.am    
   5 C5             0.6152    -0.2394    -0.3345 C.3     
   6 C6            -0.6033    -0.8671     0.1547 C.3     
   7 C7             0.9870    -0.7068    -1.7566 C.3     
   8 C8            -0.4722    -2.4001     0.2630 C.3     
   9 C9             1.6615    -2.0483    -1.6581 C.3     
  10 C10           -0.6601    -2.9941    -1.1067 C.3     
  11 C11            0.6760    -3.2185    -1.8404 C.3     
  12 C12            4.1298     5.0577     2.1753 C.3     
  13 C13            5.3840     6.9746     1.3850 C.3     
  14 C14            5.4119     4.3670     2.6457 C.3     
  15 C15            6.7035     6.3412     1.8318 C.3     
  16 C16            6.4448     5.4286     3.0338 C.3     
  17 C17            1.7174     1.9147    -0.2464 C.3     
  18 C18            3.2590     6.4627     0.4861 C.ar    
  19 C19            2.3124     5.6318    -0.1136 C.ar    
  20 C20            1.4858     3.4037    -0.2615 C.2     
  21 C21            3.0330     7.8293     0.5526 C.ar    
  22 C22            1.1538     6.1777    -0.6442 C.ar    
  23 C23            1.8749     8.3651     0.0204 C.ar    
  24 C24            0.9393     7.5422    -0.5785 C.ar    
  25 H25            1.4344    -0.4843     0.3415 H       
  26 H26           -0.8381    -0.4625     1.1392 H       
  27 H27           -1.4206    -0.6300    -0.5264 H       
  28 H28            0.0841    -0.7944    -2.3610 H       
  29 H29            1.6675     0.0125    -2.2122 H       
  30 H30            0.5173    -2.6572     0.6410 H       
  31 H31           -1.2365    -2.7862     0.9375 H       
  32 H32            2.4318    -2.1130    -2.4265 H       
  33 H33            2.1340    -2.1344    -0.6796 H       
  34 H34           -1.1737    -3.9505    -1.0089 H       
  35 H35           -1.2799    -2.3222    -1.7004 H       
  36 H36            0.4757    -3.3470    -2.9041 H       
  37 H37            1.1376    -4.1294    -1.4593 H       
  38 H38           -0.0785     1.5105    -1.1682 H       
  39 H39            3.7253     5.6637     2.9860 H       
  40 H40            3.3973     4.3046     1.8847 H       
  41 H41            5.5624     7.6139     0.5204 H       
  42 H42            4.9736     7.5717     2.1994 H       
  43 H43            5.1917     3.7405     3.5100 H       
  44 H44            5.8095     3.7499     1.8400 H       
  45 H45            7.1214     5.7552     1.0133 H       
  46 H46            7.4061     7.1251     2.1146 H       
  47 H47            6.0634     6.0211     3.8655 H       
  48 H48            7.3745     4.9418     3.3283 H       
  49 H49            2.2115     1.6332     0.6835 H       
  50 H50            2.3473     1.6363    -1.0912 H       
  51 H51            3.4374     3.9009    -0.1671 H       
  52 H52            3.7616     8.4750     1.0202 H       
  53 H53            0.4189     5.5374    -1.1091 H       
  54 H54            1.7004     9.4296     0.0730 H       
  55 H55            0.0365     7.9658    -0.9930 H       
  56 O56           14.7297    18.3356     8.8862 O.3     
  57 O57           13.4825    14.8803     8.8795 O.3     
  58 O58           15.8061    16.3984     8.8655 O.2     
  59 O59           12.4061    16.8175     8.9002 O.2     
  60 C60           14.7480    16.9903     8.8788 C.2     
  61 C61           13.4643    16.2256     8.8869 C.2     
  62 H62           15.5853    18.7863     8.8804 H       
  63 H63           12.6270    14.4296     8.8853 H       
@<TRIPOS>BOND
   1    1   20 2
   2    2    5 1
   3    2   17 1
   4    2   38 1
   5    3   12 1
   6    3   13 1
   7    3   18 1
   8    4   19 1
   9    4   20 am
  10    4   51 1
  11    5    6 1
  12    5    7 1
  13    5   25 1
  14    6    8 1
  15    6   26 1
  16    6   27 1
  17    7    9 1
  18    7   28 1
  19    7   29 1
  20    8   10 1
  21    8   30 1
  22    8   31 1
  23    9   11 1
  24    9   32 1
  25    9   33 1
  26   10   11 1
  27   10   34 1
  28   10   35 1
  29   11   36 1
  30   11   37 1
  31   12   14 1
  32   12   39 1
  33   12   40 1
  34   13   15 1
  35   13   41 1
  36   13   42 1
  37   14   16 1
  38   14   43 1
  39   14   44 1
  40   15   16 1
  41   15   45 1
  42   15   46 1
  43   16   47 1
  44   16   48 1
  45   17   20 1
  46   17   49 1
  47   17   50 1
  48   18   19 ar
  49   18   21 ar
  50   19   22 ar
  51   21   23 ar
  52   21   52 1
  53   22   24 ar
  54   22   53 1
  55   23   24 ar
  56   23   54 1
  57   24   55 1
  58   56   60 1
  59   56   62 1
  60   57   61 1
  61   57   63 1
  62   58   60 2
  63   59   61 2
  64   60   61 1

#	End of record

#	Name: 9549154
#	Creating user name:	landrgr1
#	Creation time:	28. 01. 2015 13:52

#	Modifying user name:	landrgr1
#	Modification time:	28. 01. 2015 13:52

#	Program:	corina 3.48 0006  22.01.2010

@<TRIPOS>MOLECULE
9549154
  48   49    0    0    0
SMALL
NO_CHARGES


@<TRIPOS>ATOM
   1 Cl1            0.0000     0.0000     0.0000 Cl      
   2 H2             0.0000     1.3700     0.0000 H       
   3 O3            10.2533    11.3887     8.2780 O.3     
   4 O4            12.1405    10.4906     7.5601 O.2     
   5 N5             7.4053     9.9855     6.8620 N.3     
   6 C6             8.3380    10.1401     9.1209 C.3     
   7 C7             7.4123    10.7899     8.0900 C.3     
   8 C8             9.7531    10.0518     8.5438 C.3     
   9 C9             8.3551    10.9874    10.3944 C.3     
  10 C10            5.9953    10.8727     8.6604 C.3     
  11 C11            9.7128     9.2513     7.2389 C.3     
  12 C12            8.7446     9.9228     6.2625 C.3     
  13 C13            6.9384    11.0737    10.9664 C.3     
  14 C14            6.0092    11.7179     9.9359 C.3     
  15 C15           10.6582     9.3623     9.5320 C.ar    
  16 C16            6.4217    10.5012     5.9004 C.3     
  17 C17           11.7025    10.0564    10.1138 C.ar    
  18 C18           10.4406     8.0374     9.8610 C.ar    
  19 C19           11.4749    11.4846     7.7300 C.2     
  20 C20           12.5328     9.4240    11.0203 C.ar    
  21 C21           11.2709     7.4050    10.7674 C.ar    
  22 C22           12.3184     8.0976    11.3452 C.ar    
  23 C23           12.0162    12.8319     7.3266 C.3     
  24 H24            7.9769     9.1383     9.3537 H       
  25 H25            7.7698    11.7945     7.8637 H       
  26 H26            9.0162    10.5270    11.1286 H       
  27 H27            8.7140    11.9895    10.1595 H       
  28 H28            5.3342    11.3333     7.9262 H       
  29 H29            5.6378     9.8695     8.8929 H       
  30 H30           10.7100     9.2213     6.7996 H       
  31 H31            9.3752     8.2357     7.4454 H       
  32 H32            8.7022     9.3456     5.3388 H       
  33 H33            9.0920    10.9325     6.0436 H       
  34 H34            6.5802    10.0716    11.2021 H       
  35 H35            6.9492    11.6780    11.8735 H       
  36 H36            6.3655    12.7213     9.7027 H       
  37 H37            5.0000    11.7768    10.3435 H       
  38 H38            6.6709    11.5305     5.6425 H       
  39 H39            6.4374     9.8871     5.0000 H       
  40 H40            5.4272    10.4686     6.3452 H       
  41 H41           11.8700    11.0927     9.8599 H       
  42 H42            9.6218     7.4965     9.4100 H       
  43 H43           13.3491     9.9661    11.4743 H       
  44 H44           11.1007     6.3700    11.0247 H       
  45 H45           12.9673     7.6034    12.0532 H       
  46 H46           12.5571    13.2718     8.1644 H       
  47 H47           12.6921    12.7132     6.4798 H       
  48 H48           11.1907    13.4852     7.0438 H       
@<TRIPOS>BOND
   1    1    2 1
   2    3    8 1
   3    3   19 1
   4    4   19 2
   5    5    7 1
   6    5   12 1
   7    5   16 1
   8    6    7 1
   9    6    8 1
  10    6    9 1
  11    6   24 1
  12    7   10 1
  13    7   25 1
  14    8   11 1
  15    8   15 1
  16    9   13 1
  17    9   26 1
  18    9   27 1
  19   10   14 1
  20   10   28 1
  21   10   29 1
  22   11   12 1
  23   11   30 1
  24   11   31 1
  25   12   32 1
  26   12   33 1
  27   13   14 1
  28   13   34 1
  29   13   35 1
  30   14   36 1
  31   14   37 1
  32   15   17 ar
  33   15   18 ar
  34   16   38 1
  35   16   39 1
  36   16   40 1
  37   17   20 ar
  38   17   41 1
  39   18   21 ar
  40   18   42 1
  41   19   23 1
  42   20   22 ar
  43   20   43 1
  44   21   22 ar
  45   21   44 1
  46   22   45 1
  47   23   46 1
  48   23   47 1
  49   23   48 1

#	End of record

#	Name: 9549109
#	Creating user name:	landrgr1
#	Creation time:	28. 01. 2015 13:52

#	Modifying user name:	landrgr1
#	Modification time:	28. 01. 2015 13:52

#	Program:	corina 3.48 0006  22.01.2010

@<TRIPOS>MOLECULE
9549109
  39   39    0    0    0
SMALL
NO_CHARGES


@<TRIPOS>ATOM
   1 Cl1            0.0000     0.0000     0.0000 Cl      
   2 H2             0.0000     1.3700     0.0000 H       
   3 N3             7.0477     9.4820     9.0334 N.pl3   
   4 N4             8.6630    10.7783     7.9108 N.2     
   5 N5            10.2972     9.5816     5.0000 N.1     
   6 C6             9.2716     7.4075     9.4585 C.3     
   7 C7             7.8782     7.3963    10.0269 C.3     
   8 C8            10.1163     8.5936     9.9900 C.3     
   9 C9             6.9821     8.0794     8.9870 C.3     
  10 C10            9.2435     9.8580    10.0792 C.3     
  11 C11            8.3145    10.0696     8.9487 C.2     
  12 C12            5.8370    10.2972     9.1592 C.3     
  13 C13            9.8478    11.4595     7.9151 C.ar    
  14 C14           10.7914    11.2488     6.8897 C.ar    
  15 C15           10.1296    12.3729     8.9318 C.ar    
  16 C16           12.2572    12.8460     7.9259 C.ar    
  17 C17           11.9973    11.9529     6.9089 C.ar    
  18 C18           11.3261    13.0576     8.9311 C.ar    
  19 C19           13.5601    13.6031     7.9418 C.3     
  20 C20           10.5158    10.3191     5.8359 C.1     
  21 H21            9.7682     6.4739     9.7228 H       
  22 H22            9.2093     7.4771     8.3725 H       
  23 H23            7.5485     6.3700    10.1885 H       
  24 H24            7.8524     7.9508    10.9650 H       
  25 H25           10.5018     8.3490    10.9797 H       
  26 H26           10.9505     8.7764     9.3126 H       
  27 H27            5.9505     7.7715     9.1579 H       
  28 H28            7.2835     7.7476     7.9935 H       
  29 H29            8.6585     9.8056    10.9975 H       
  30 H30            9.9018    10.7240    10.1476 H       
  31 H31            5.6177    10.4618    10.2141 H       
  32 H32            5.9923    11.2569     8.6663 H       
  33 H33            5.0000     9.7794     8.6906 H       
  34 H34            9.4101    12.5436     9.7189 H       
  35 H35           12.7262    11.7973     6.1273 H       
  36 H36           11.5398    13.7641     9.7195 H       
  37 H37           13.4435    14.5385     7.3945 H       
  38 H38           13.8430    13.8179     8.9722 H       
  39 H39           14.3363    13.0005     7.4700 H       
@<TRIPOS>BOND
   1    1    2 1
   2    3    9 1
   3    3   11 1
   4    3   12 1
   5    4   11 2
   6    4   13 1
   7    5   20 3
   8    6    7 1
   9    6    8 1
  10    6   21 1
  11    6   22 1
  12    7    9 1
  13    7   23 1
  14    7   24 1
  15    8   10 1
  16    8   25 1
  17    8   26 1
  18    9   27 1
  19    9   28 1
  20   10   11 1
  21   10   29 1
  22   10   30 1
  23   12   31 1
  24   12   32 1
  25   12   33 1
  26   13   14 ar
  27   13   15 ar
  28   14   17 ar
  29   14   20 1
  30   15   18 ar
  31   15   34 1
  32   16   17 ar
  33   16   18 ar
  34   16   19 1
  35   17   35 1
  36   18   36 1
  37   19   37 1
  38   19   38 1
  39   19   39 1

#	End of record

#	Name: 9548433
#	Creating user name:	landrgr1
#	Creation time:	28. 01. 2015 13:52

#	Modifying user name:	landrgr1
#	Modification time:	28. 01. 2015 13:52

#	Program:	corina 3.48 0006  22.01.2010

@<TRIPOS>MOLECULE
9548433
  45   46    0    0    0
SMALL
NO_CHARGES


@<TRIPOS>ATOM
   1 F1            -0.7926     4.9997    -1.2061 F       
   2 F2            -2.5439     4.9855     0.2607 F       
   3 F3            -2.8756     5.6222    -1.9081 F       
   4 O4            -4.4450    -3.0316    -0.4274 O.2     
   5 O5            -0.2692     1.4753     0.6874 O.3     
   6 O6            -3.2159    -4.8137     1.5808 O.3     
   7 O7             0.9734    -0.3543     0.4595 O.2     
   8 N8            -2.2732    -2.7463    -0.2110 N.am    
   9 N9            -3.7926    -0.9626    -0.0124 N.am    
  10 C10           -2.6675    -0.0454     0.2356 C.3     
  11 C11           -1.2774    -0.6484     0.2355 C.2     
  12 C12           -1.1679    -1.9753     0.0096 C.2     
  13 C13           -2.7064     1.0326    -0.8168 C.ar    
  14 C14           -3.5232    -2.2664    -0.2219 C.2     
  15 C15           -2.0801    -4.1778    -0.4554 C.3     
  16 C16            0.1963    -2.6157     0.0014 C.3     
  17 C17           -2.4293     2.3427    -0.4746 C.ar    
  18 C18           -3.0136     0.7102    -2.1257 C.ar    
  19 C19           -0.1333     0.1514     0.4641 C.2     
  20 C20           -1.9735    -4.9136     0.8818 C.3     
  21 C21           -2.4650     3.3317    -1.4400 C.ar    
  22 C22           -3.0493     1.6989    -3.0908 C.ar    
  23 C23           -2.7773     3.0102    -2.7475 C.ar    
  24 C24           -2.1639     4.7604    -1.0667 C.3     
  25 C25            0.9286     2.2219     0.9108 C.3     
  26 C26           -3.2235    -5.4712     2.8495 C.3     
  27 H27           -2.8279     0.4291     1.2037 H       
  28 H28           -4.7060    -0.6362    -0.0243 H       
  29 H29           -2.9281    -4.5680    -1.0182 H       
  30 H30           -1.1643    -4.3285    -1.0270 H       
  31 H31            0.0902    -3.6953    -0.1044 H       
  32 H32            0.7765    -2.2240    -0.8340 H       
  33 H33            0.7088    -2.3910     0.9368 H       
  34 H34           -2.1853     2.5939     0.5471 H       
  35 H35           -3.2255    -0.3143    -2.3940 H       
  36 H36           -1.1820    -4.4644     1.4816 H       
  37 H37           -1.7415    -5.9633     0.7015 H       
  38 H38           -3.2889     1.4470    -4.1133 H       
  39 H39           -2.8055     3.7829    -3.5015 H       
  40 H40            1.5775     2.1370     0.0392 H       
  41 H41            0.6780     3.2697     1.0766 H       
  42 H42            1.4438     1.8285     1.7871 H       
  43 H43           -4.2010    -5.3492     3.3161 H       
  44 H44           -3.0175    -6.5324     2.7100 H       
  45 H45           -2.4579    -5.0336     3.4902 H       
@<TRIPOS>BOND
   1    1   24 1
   2    2   24 1
   3    3   24 1
   4    4   14 2
   5    5   19 1
   6    5   25 1
   7    6   20 1
   8    6   26 1
   9    7   19 2
  10    8   12 1
  11    8   14 am
  12    8   15 1
  13    9   10 1
  14    9   14 am
  15    9   28 1
  16   10   11 1
  17   10   13 1
  18   10   27 1
  19   11   12 2
  20   11   19 1
  21   12   16 1
  22   13   17 ar
  23   13   18 ar
  24   15   20 1
  25   15   29 1
  26   15   30 1
  27   16   31 1
  28   16   32 1
  29   16   33 1
  30   17   21 ar
  31   17   34 1
  32   18   22 ar
  33   18   35 1
  34   20   36 1
  35   20   37 1
  36   21   23 ar
  37   21   24 1
  38   22   23 ar
  39   22   38 1
  40   23   39 1
  41   25   40 1
  42   25   41 1
  43   25   42 1
  44   26   43 1
  45   26   44 1
  46   26   45 1

#	End of record

#	Name: 9548427
#	Creating user name:	landrgr1
#	Creation time:	28. 01. 2015 13:52

#	Modifying user name:	landrgr1
#	Modification time:	28. 01. 2015 13:52

#	Program:	corina 3.48 0006  22.01.2010

@<TRIPOS>MOLECULE
9548427
  42   44    0    0    0
SMALL
NO_CHARGES


@<TRIPOS>ATOM
   1 Br1           -2.2929     4.3997     4.0663 Br      
   2 O2            -4.5802    -2.8466     0.4868 O.2     
   3 O3            -0.0150     1.2825    -0.5632 O.3     
   4 O4             1.0295    -0.6802    -0.5863 O.2     
   5 N5            -2.3932    -2.7550     0.2553 N.am    
   6 N6            -3.7511    -0.8459     0.0529 N.am    
   7 C7            -2.1562    -4.4504     2.0020 C.3     
   8 C8            -2.1825    -5.9033     2.4807 C.3     
   9 C9            -0.8638    -5.1276     2.4625 C.3     
  10 C10           -2.3258    -4.1974     0.5026 C.3     
  11 C11           -1.2263    -2.0868     0.0168 C.2     
  12 C12           -3.5960    -2.1669     0.2704 C.2     
  13 C13           -2.5512    -0.0329    -0.2079 C.3     
  14 C14           -1.2202    -0.7569    -0.2178 C.2     
  15 C15            0.0756    -2.8457     0.0160 C.3     
  16 C16           -2.4883     1.0511     0.8372 C.ar    
  17 C17           -0.0122    -0.0633    -0.4640 C.2     
  18 C18           -2.0992     2.3297     0.4840 C.ar    
  19 C19           -2.8253     0.7678     2.1477 C.ar    
  20 C20           -2.0409     3.3240     1.4423 C.ar    
  21 C21           -2.7677     1.7616     3.1065 C.ar    
  22 C22           -2.3725     3.0397     2.7548 C.ar    
  23 C23            1.2407     1.9172    -0.8128 C.3     
  24 H24           -2.5907    -3.6963     2.6583 H       
  25 H25           -2.6342    -6.1052     3.4519 H       
  26 H26           -2.3205    -6.6790     1.7274 H       
  27 H27           -0.1344    -5.3929     1.6972 H       
  28 H28           -0.4481    -4.8191     3.4217 H       
  29 H29           -3.2455    -4.6688     0.1563 H       
  30 H30           -1.4766    -4.6190    -0.0353 H       
  31 H31           -2.6755     0.4478    -1.1783 H       
  32 H32           -4.6320    -0.4402     0.0686 H       
  33 H33            0.3347    -3.1217    -1.0061 H       
  34 H34            0.8626    -2.2175     0.4333 H       
  35 H35           -0.0287    -3.7468     0.6204 H       
  36 H36           -1.8403     2.5516    -0.5407 H       
  37 H37           -3.1338    -0.2301     2.4222 H       
  38 H38           -1.7361     4.3228     1.1664 H       
  39 H39           -3.0306     1.5402     4.1303 H       
  40 H40            1.9326     1.6847    -0.0033 H       
  41 H41            1.6499     1.5549    -1.7559 H       
  42 H42            1.0974     2.9963    -0.8696 H       
@<TRIPOS>BOND
   1    1   22 1
   2    2   12 2
   3    3   17 1
   4    3   23 1
   5    4   17 2
   6    5   10 1
   7    5   11 1
   8    5   12 am
   9    6   12 am
  10    6   13 1
  11    6   32 1
  12    7    8 1
  13    7    9 1
  14    7   10 1
  15    7   24 1
  16    8    9 1
  17    8   25 1
  18    8   26 1
  19    9   27 1
  20    9   28 1
  21   10   29 1
  22   10   30 1
  23   11   14 2
  24   11   15 1
  25   13   14 1
  26   13   16 1
  27   13   31 1
  28   14   17 1
  29   15   33 1
  30   15   34 1
  31   15   35 1
  32   16   18 ar
  33   16   19 ar
  34   18   20 ar
  35   18   36 1
  36   19   21 ar
  37   19   37 1
  38   20   22 ar
  39   20   38 1
  40   21   22 ar
  41   21   39 1
  42   23   40 1
  43   23   41 1
  44   23   42 1

#	End of record

#	Name: 9548402
#	Creating user name:	landrgr1
#	Creation time:	28. 01. 2015 13:52

#	Modifying user name:	landrgr1
#	Modification time:	28. 01. 2015 13:52

#	Program:	corina 3.48 0006  22.01.2010

@<TRIPOS>MOLECULE
9548402
  45   47    0    0    0
SMALL
NO_CHARGES


@<TRIPOS>ATOM
   1 F1            -3.7163     4.7693     2.8355 F       
   2 F2            -1.5346     4.4073     2.2626 F       
   3 F3            -2.1783     4.2743     4.4506 F       
   4 O4            -4.4148    -3.0737    -0.4013 O.2     
   5 O5            -0.3214     1.5224     0.6535 O.3     
   6 O6            -0.7609    -5.0951     1.5514 O.3     
   7 O7             0.9559    -0.2829     0.4234 O.2     
   8 N8            -2.2474    -2.7434    -0.2060 N.am    
   9 N9            -3.8008    -0.9898    -0.0024 N.am    
  10 C10           -2.6924    -0.0488     0.2308 C.3     
  11 C11           -1.2904    -0.6236     0.2211 C.2     
  12 C12           -1.1560    -1.9491     0.0009 C.2     
  13 C13           -2.9154     0.6095     1.5679 C.ar    
  14 C14           -3.5069    -2.2889    -0.2079 C.2     
  15 C15           -2.0276    -4.1720    -0.4450 C.3     
  16 C16            0.2207    -2.5619    -0.0165 C.3     
  17 C17           -2.6508     1.9566     1.7277 C.ar    
  18 C18           -3.3901    -0.1329     2.6333 C.ar    
  19 C19           -0.1607     0.2004     0.4355 C.2     
  20 C20           -1.9025    -4.8887     0.8748 C.2     
  21 C21           -2.8554     2.5606     2.9544 C.ar    
  22 C22           -3.5947     0.4709     3.8597 C.ar    
  23 C23           -3.3250     1.8173     4.0209 C.ar    
  24 C24           -2.9154    -5.4306     1.5747 C.2     
  25 C25           -2.5660     4.0292     3.1289 C.3     
  26 C26           -2.3507    -5.9964     2.7409 C.2     
  27 C27           -1.0266    -5.7664     2.6838 C.2     
  28 C28            0.8630     2.2941     0.8624 C.3     
  29 H29           -2.7431     0.7263    -0.5339 H       
  30 H30           -4.7207    -0.6820    -0.0077 H       
  31 H31           -2.8703    -4.5811    -1.0022 H       
  32 H32           -1.1116    -4.3074    -1.0202 H       
  33 H33            0.1358    -3.6432    -0.1240 H       
  34 H34            0.7881    -2.1569    -0.8544 H       
  35 H35            0.7339    -2.3287     0.9164 H       
  36 H36           -2.2839     2.5374     0.8944 H       
  37 H37           -3.6014    -1.1845     2.5072 H       
  38 H38           -3.9658    -0.1089     4.6918 H       
  39 H39           -3.4845     2.2890     4.9793 H       
  40 H40           -3.9596    -5.4325     1.2991 H       
  41 H41           -2.8808    -6.5137     3.5269 H       
  42 H42           -0.3004    -6.0701     3.4233 H       
  43 H43            1.3939     1.9157     1.7359 H       
  44 H44            1.5057     2.2179    -0.0147 H       
  45 H45            0.5928     3.3375     1.0252 H       
@<TRIPOS>BOND
   1    1   25 1
   2    2   25 1
   3    3   25 1
   4    4   14 2
   5    5   19 1
   6    5   28 1
   7    6   20 1
   8    6   27 1
   9    7   19 2
  10    8   12 1
  11    8   14 am
  12    8   15 1
  13    9   10 1
  14    9   14 am
  15    9   30 1
  16   10   11 1
  17   10   13 1
  18   10   29 1
  19   11   12 2
  20   11   19 1
  21   12   16 1
  22   13   17 ar
  23   13   18 ar
  24   15   20 1
  25   15   31 1
  26   15   32 1
  27   16   33 1
  28   16   34 1
  29   16   35 1
  30   17   21 ar
  31   17   36 1
  32   18   22 ar
  33   18   37 1
  34   20   24 2
  35   21   23 ar
  36   21   25 1
  37   22   23 ar
  38   22   38 1
  39   23   39 1
  40   24   26 1
  41   24   40 1
  42   26   27 2
  43   26   41 1
  44   27   42 1
  45   28   43 1
  46   28   44 1
  47   28   45 1

#	End of record

#	Name: 9547804
#	Creating user name:	landrgr1
#	Creation time:	28. 01. 2015 13:52

#	Modifying user name:	landrgr1
#	Modification time:	28. 01. 2015 13:52

#	Program:	corina 3.48 0006  22.01.2010

@<TRIPOS>MOLECULE
9547804
  32   34    0    0    0
SMALL
NO_CHARGES


@<TRIPOS>ATOM
   1 F1             1.5428   -10.3987    -0.0710 F       
   2 O2            -2.1847    -6.9675    -0.0153 O.2     
   3 O3            -0.0163     1.3534     0.0095 O.3     
   4 N4             1.2618    -4.8959    -0.0367 N.pl3   
   5 C5             0.0597    -4.2507    -0.0218 C.2     
   6 C6             1.3408    -6.2729    -0.0448 C.ar    
   7 C7             0.1628    -7.0383    -0.0377 C.ar    
   8 C8             0.0396    -2.7746    -0.0137 C.ar    
   9 C9            -1.1333    -4.9334    -0.0145 C.2     
  10 C10           -1.1364    -6.3417    -0.0220 C.2     
  11 C11            2.5751    -6.9160    -0.0605 C.ar    
  12 C12            0.2350    -8.4317    -0.0467 C.ar    
  13 C13           -1.1786    -2.0906     0.0016 C.ar    
  14 C14            1.2390    -2.0577    -0.0155 C.ar    
  15 C15            2.6327    -8.2921    -0.0689 C.ar    
  16 C16            1.4674    -9.0499    -0.0627 C.ar    
  17 C17           -1.1929    -0.7133     0.0096 C.ar    
  18 C18            1.2159    -0.6805    -0.0079 C.ar    
  19 C19            0.0021    -0.0041     0.0020 C.ar    
  20 C20            1.2479     2.0195     0.0010 C.3     
  21 H21            2.0795    -4.3743    -0.0458 H       
  22 H22           -2.0669    -4.3907    -0.0030 H       
  23 H23            3.4866    -6.3366    -0.0665 H       
  24 H24           -0.6691    -9.0225    -0.0409 H       
  25 H25           -2.1078    -2.6411     0.0069 H       
  26 H26            2.1828    -2.5827    -0.0228 H       
  27 H27            3.5925    -8.7871    -0.0810 H       
  28 H28           -2.1341    -0.1838     0.0214 H       
  29 H29            2.1425    -0.1257    -0.0093 H       
  30 H30            1.0905     3.0980     0.0083 H       
  31 H31            1.8173     1.7294     0.8840 H       
  32 H32            1.8003     1.7390    -0.8958 H       
@<TRIPOS>BOND
   1    1   16 1
   2    2   10 2
   3    3   19 1
   4    3   20 1
   5    4    5 1
   6    4    6 1
   7    4   21 1
   8    5    8 1
   9    5    9 2
  10    6    7 ar
  11    6   11 ar
  12    7   10 1
  13    7   12 ar
  14    8   13 ar
  15    8   14 ar
  16    9   10 1
  17    9   22 1
  18   11   15 ar
  19   11   23 1
  20   12   16 ar
  21   12   24 1
  22   13   17 ar
  23   13   25 1
  24   14   18 ar
  25   14   26 1
  26   15   16 ar
  27   15   27 1
  28   17   19 ar
  29   17   28 1
  30   18   19 ar
  31   18   29 1
  32   20   30 1
  33   20   31 1
  34   20   32 1

#	End of record

#	Name: 9547776
#	Creating user name:	landrgr1
#	Creation time:	28. 01. 2015 13:52

#	Modifying user name:	landrgr1
#	Modification time:	28. 01. 2015 13:52

#	Program:	corina 3.48 0006  22.01.2010

@<TRIPOS>MOLECULE
9547776
  50   53    0    0    0
SMALL
NO_CHARGES


@<TRIPOS>ATOM
   1 O1            -5.6644    -2.3817    -0.3636 O.2     
   2 O2             0.3984     0.9824    -0.5256 O.3     
   3 O3            -6.1106    -9.0188    -1.0120 O.2     
   4 O4           -12.0132   -11.2028    -0.7253 O.3     
   5 N5            -2.2364    -4.4676    -0.1142 N.pl3   
   6 N6            -7.0275    -7.2865     0.0329 N.am    
   7 C7            -3.4205    -5.1740    -0.0782 C.ar    
   8 C8            -4.6437    -4.4872    -0.1617 C.ar    
   9 C9            -2.2194    -3.1089    -0.2296 C.2     
  10 C10           -5.8459    -5.1934    -0.1247 C.ar    
  11 C11           -4.6257    -3.0185    -0.2876 C.2     
  12 C12           -5.8248    -6.5711    -0.0054 C.ar    
  13 C13           -0.9180    -2.4091    -0.2631 C.ar    
  14 C14           -3.3742    -2.3709    -0.3161 C.2     
  15 C15           -3.4188    -6.5612     0.0411 C.ar    
  16 C16           -4.6099    -7.2499     0.0773 C.ar    
  17 C17           -0.8730    -1.0197    -0.3805 C.ar    
  18 C18            0.2710    -3.1358    -0.1720 C.ar    
  19 C19            0.3501    -0.3710    -0.4113 C.ar    
  20 C20           -7.1054    -8.5049    -0.5378 C.2     
  21 C21            1.4839    -2.4793    -0.2037 C.ar    
  22 C22           -8.3979    -9.2155    -0.5871 C.ar    
  23 C23            1.5269    -1.1025    -0.3259 C.ar    
  24 C24           -8.4807   -10.4789    -1.1785 C.ar    
  25 C25           -9.5411    -8.6291    -0.0376 C.ar    
  26 C26           -9.6886   -11.1386    -1.2225 C.ar    
  27 C27          -10.7453    -9.2953    -0.0857 C.ar    
  28 C28          -10.8246   -10.5494    -0.6799 C.ar    
  29 C29            1.6936     1.5855    -0.5511 C.3     
  30 C30          -13.1404   -10.5398    -0.1490 C.3     
  31 H31           -1.3961    -4.9482    -0.0520 H       
  32 H32           -6.7872    -4.6677    -0.1883 H       
  33 H33           -3.3235    -1.2959    -0.4066 H       
  34 H34           -2.4831    -7.0967     0.1055 H       
  35 H35           -4.6033    -8.3259     0.1703 H       
  36 H36           -1.7892    -0.4518    -0.4476 H       
  37 H37           -7.8049    -6.9052     0.4702 H       
  38 H38            0.2409    -4.2112    -0.0764 H       
  39 H39            2.4028    -3.0425    -0.1331 H       
  40 H40            2.4794    -0.5940    -0.3509 H       
  41 H41           -7.5986   -10.9372    -1.6006 H       
  42 H42           -9.4803    -7.6548     0.4246 H       
  43 H43           -9.7535   -12.1149    -1.6796 H       
  44 H44          -11.6293    -8.8428     0.3388 H       
  45 H45            2.2575     1.1995    -1.4003 H       
  46 H46            1.5893     2.6664    -0.6452 H       
  47 H47            2.2220     1.3506     0.3729 H       
  48 H48          -14.0241   -11.1694    -0.2523 H       
  49 H49          -12.9499   -10.3513     0.9075 H       
  50 H50          -13.3068    -9.5930    -0.6628 H       
@<TRIPOS>BOND
   1    1   11 2
   2    2   19 1
   3    2   29 1
   4    3   20 2
   5    4   28 1
   6    4   30 1
   7    5    7 1
   8    5    9 1
   9    5   31 1
  10    6   12 1
  11    6   20 am
  12    6   37 1
  13    7    8 ar
  14    7   15 ar
  15    8   10 ar
  16    8   11 1
  17    9   13 1
  18    9   14 2
  19   10   12 ar
  20   10   32 1
  21   11   14 1
  22   12   16 ar
  23   13   17 ar
  24   13   18 ar
  25   14   33 1
  26   15   16 ar
  27   15   34 1
  28   16   35 1
  29   17   19 ar
  30   17   36 1
  31   18   21 ar
  32   18   38 1
  33   19   23 ar
  34   20   22 1
  35   21   23 ar
  36   21   39 1
  37   22   24 ar
  38   22   25 ar
  39   23   40 1
  40   24   26 ar
  41   24   41 1
  42   25   27 ar
  43   25   42 1
  44   26   28 ar
  45   26   43 1
  46   27   28 ar
  47   27   44 1
  48   29   45 1
  49   29   46 1
  50   29   47 1
  51   30   48 1
  52   30   49 1
  53   30   50 1

#	End of record

#	Name: 9547765
#	Creating user name:	landrgr1
#	Creation time:	28. 01. 2015 13:52

#	Modifying user name:	landrgr1
#	Modification time:	28. 01. 2015 13:52

#	Program:	corina 3.48 0006  22.01.2010

@<TRIPOS>MOLECULE
9547765
  63   67    0    0    0
SMALL
NO_CHARGES


@<TRIPOS>ATOM
   1 Cl1          -10.6362     3.2561     0.0567 Cl      
   2 O2            -0.2411     1.8673    -0.4279 O.3     
   3 O3             4.3053    -5.2761    -0.4018 O.3     
   4 O4            -0.4991     8.1099    -0.7437 O.3     
   5 O5            -4.3921     1.3965    -1.3933 O.2     
   6 N6             0.2904    -2.2235    -0.2503 N.ar    
   7 N7            -4.8475    -0.2323     0.0463 N.am    
   8 C8            -1.1782    -0.3459    -0.2351 C.ar    
   9 C9            -0.9554    -1.7433    -0.1778 C.ar    
  10 C10           -0.0695     0.5232    -0.3690 C.ar    
  11 C11            1.3312    -1.4211    -0.3753 C.ar    
  12 C12           -2.4856     0.1528    -0.1598 C.ar    
  13 C13            1.1819    -0.0301    -0.4380 C.ar    
  14 C14           -3.5407    -0.7250    -0.0298 C.ar    
  15 C15           -2.0549    -2.6105    -0.0452 C.ar    
  16 C16            2.6916    -2.0070    -0.4506 C.ar    
  17 C17           -3.3148    -2.1047     0.0263 C.ar    
  18 C18            0.9359     2.6663    -0.5634 C.3     
  19 C19            0.5516     4.1227    -0.6116 C.ar    
  20 C20            2.8618    -3.3881    -0.3896 C.ar    
  21 C21            3.8036    -1.1772    -0.5886 C.ar    
  22 C22            4.1351    -3.9290    -0.4610 C.ar    
  23 C23            0.4693     4.8539     0.5590 C.ar    
  24 C24            0.2874     4.7269    -1.8269 C.ar    
  25 C25            5.0684    -1.7249    -0.6589 C.ar    
  26 C26           -5.1899     0.8780    -0.6366 C.2     
  27 C27            5.2371    -3.0956    -0.5925 C.ar    
  28 C28           -6.5349     1.4652    -0.4655 C.ar    
  29 C29            0.1177     6.1892     0.5174 C.ar    
  30 C30           -0.0646     6.0619    -1.8738 C.ar    
  31 C31           -0.1530     6.7964    -0.7002 C.ar    
  32 C32           -6.8926     2.6155    -1.1716 C.ar    
  33 C33           -7.4554     0.8687     0.3985 C.ar    
  34 C34           -8.1493     3.1588    -1.0077 C.ar    
  35 C35           -8.7091     1.4214     0.5541 C.ar    
  36 C36           -9.0561     2.5659    -0.1448 C.ar    
  37 C37            5.6458    -5.7648    -0.4814 C.3     
  38 C38           -0.7637     8.6687    -2.0320 C.3     
  39 H39           -2.6652     1.2169    -0.2023 H       
  40 H40            2.0500     0.6041    -0.5408 H       
  41 H41           -1.8983    -3.6782    -0.0007 H       
  42 H42           -4.1535    -2.7775     0.1283 H       
  43 H43            1.5933     2.4920     0.2883 H       
  44 H44            1.4541     2.3966    -1.4836 H       
  45 H45           -5.5074    -0.6898     0.5905 H       
  46 H46            2.0034    -4.0354    -0.2866 H       
  47 H47            3.6751    -0.1062    -0.6407 H       
  48 H48            0.6798     4.3806     1.5067 H       
  49 H49            0.3567     4.1547    -2.7403 H       
  50 H50            5.9288    -1.0810    -0.7658 H       
  51 H51            6.2290    -3.5193    -0.6477 H       
  52 H52            0.0532     6.7598     1.4321 H       
  53 H53           -0.2705     6.5335    -2.8233 H       
  54 H54           -6.1862     3.0789    -1.8445 H       
  55 H55           -7.1861    -0.0239     0.9437 H       
  56 H56           -8.4270     4.0487    -1.5530 H       
  57 H57           -9.4219     0.9609     1.2221 H       
  58 H58            6.0900    -5.4547    -1.4272 H       
  59 H59            6.2299    -5.3592     0.3447 H       
  60 H60            5.6398    -6.8532    -0.4222 H       
  61 H61            0.1252     8.5792    -2.6564 H       
  62 H62           -1.5904     8.1324    -2.4979 H       
  63 H63           -1.0278     9.7207    -1.9244 H       
@<TRIPOS>BOND
   1    1   36 1
   2    2   10 1
   3    2   18 1
   4    3   22 1
   5    3   37 1
   6    4   31 1
   7    4   38 1
   8    5   26 2
   9    6    9 ar
  10    6   11 ar
  11    7   14 1
  12    7   26 am
  13    7   45 1
  14    8    9 ar
  15    8   10 ar
  16    8   12 ar
  17    9   15 ar
  18   10   13 ar
  19   11   13 ar
  20   11   16 1
  21   12   14 ar
  22   12   39 1
  23   13   40 1
  24   14   17 ar
  25   15   17 ar
  26   15   41 1
  27   16   20 ar
  28   16   21 ar
  29   17   42 1
  30   18   19 1
  31   18   43 1
  32   18   44 1
  33   19   23 ar
  34   19   24 ar
  35   20   22 ar
  36   20   46 1
  37   21   25 ar
  38   21   47 1
  39   22   27 ar
  40   23   29 ar
  41   23   48 1
  42   24   30 ar
  43   24   49 1
  44   25   27 ar
  45   25   50 1
  46   26   28 1
  47   27   51 1
  48   28   32 ar
  49   28   33 ar
  50   29   31 ar
  51   29   52 1
  52   30   31 ar
  53   30   53 1
  54   32   34 ar
  55   32   54 1
  56   33   35 ar
  57   33   55 1
  58   34   36 ar
  59   34   56 1
  60   35   36 ar
  61   35   57 1
  62   37   58 1
  63   37   59 1
  64   37   60 1
  65   38   61 1
  66   38   62 1
  67   38   63 1

#	End of record

#	Name: 9547736
#	Creating user name:	landrgr1
#	Creation time:	28. 01. 2015 13:52

#	Modifying user name:	landrgr1
#	Modification time:	28. 01. 2015 13:52

#	Program:	corina 3.48 0006  22.01.2010

@<TRIPOS>MOLECULE
9547736
  60   64    0    0    0
SMALL
NO_CHARGES


@<TRIPOS>ATOM
   1 O1             0.0089     1.3640     0.6254 O.3     
   2 O2             1.0898    -0.5723     0.7205 O.2     
   3 O3             3.7496     2.6786     0.1613 O.2     
   4 O4            -0.0571     3.9748     0.4490 O.2     
   5 O5             5.2844     6.8365     0.0627 O.2     
   6 N6            -3.6272    -2.1293     0.9874 N.ar    
   7 N7             4.5619     4.7557     0.1025 N.am    
   8 N8             3.1059     6.5960     0.2783 N.am    
   9 N9             0.7645     6.3340     0.5103 N.pl3   
  10 C10           -4.9645    -0.1296     0.6471 C.3     
  11 C11           -5.5536     0.5151     1.9034 C.3     
  12 C12           -4.9714     1.3933     0.7940 C.3     
  13 C13           -3.6402    -0.8357     0.7830 C.ar    
  14 C14           -2.4649    -0.0937     0.6881 C.ar    
  15 C15           -1.2383    -0.7336     0.8122 C.ar    
  16 C16           -2.4858    -2.8109     1.1166 C.ar    
  17 C17           -1.2432    -2.1349     1.0333 C.ar    
  18 C18           -2.4931    -4.2005     1.3353 C.ar    
  19 C19            0.0294     0.0200     0.7167 C.2     
  20 C20           -0.0502    -2.8556     1.1696 C.ar    
  21 C21           -1.3151    -4.8701     1.4627 C.ar    
  22 C22           -0.0959    -4.2012     1.3811 C.ar    
  23 C23            1.2916     2.0382     0.5348 C.3     
  24 C24            2.1768     4.3981     0.3426 C.2     
  25 C25            5.9325     4.2593    -0.0430 C.3     
  26 C26            2.0056     5.7929     0.3767 C.2     
  27 C27            3.5423     3.8775     0.1968 C.2     
  28 C28            1.0715     3.5261     0.4406 C.2     
  29 C29            4.3374     6.0790     0.1460 C.2     
  30 C30            6.2582     4.1050    -1.5063 C.ar    
  31 C31            2.9380     8.0509     0.3123 C.3     
  32 C32            6.8124     5.1605    -2.2061 C.ar    
  33 C33            6.0079     2.9062    -2.1474 C.ar    
  34 C34            7.1110     5.0190    -3.5484 C.ar    
  35 C35            6.3066     2.7646    -3.4896 C.ar    
  36 C36            6.8559     3.8218    -4.1907 C.ar    
  37 H37           -5.6610    -0.5695    -0.0667 H       
  38 H38           -6.6376     0.4993     2.0161 H       
  39 H39           -4.9832     0.4285     2.8282 H       
  40 H40           -4.0181     1.8845     0.9890 H       
  41 H41           -5.6724     1.9553     0.1769 H       
  42 H42           -2.5072     0.9721     0.5187 H       
  43 H43           -3.4299    -4.7338     1.4022 H       
  44 H44            0.9009    -2.3479     1.1070 H       
  45 H45           -1.3258    -5.9369     1.6305 H       
  46 H46            0.8247    -4.7560     1.4860 H       
  47 H47            1.8835     1.8139     1.4222 H       
  48 H48            1.8220     1.6925    -0.3525 H       
  49 H49            6.6256     4.9678     0.4107 H       
  50 H50            6.0237     3.2932     0.4533 H       
  51 H51            2.9968     8.3995     1.3434 H       
  52 H52            3.7259     8.5215    -0.2758 H       
  53 H53            1.9663     8.3144    -0.1054 H       
  54 H54            0.6624     7.2925     0.6192 H       
  55 H55           -0.0183     5.7614     0.4968 H       
  56 H56            7.0117     6.0958    -1.7043 H       
  57 H57            5.5794     2.0800    -1.5995 H       
  58 H58            7.5433     5.8438    -4.0953 H       
  59 H59            6.1114     1.8278    -3.9904 H       
  60 H60            7.0889     3.7113    -5.2395 H       
@<TRIPOS>BOND
   1    1   19 1
   2    1   23 1
   3    2   19 2
   4    3   27 2
   5    4   28 2
   6    5   29 2
   7    6   13 ar
   8    6   16 ar
   9    7   25 1
  10    7   27 am
  11    7   29 am
  12    8   26 1
  13    8   29 am
  14    8   31 1
  15    9   26 1
  16    9   54 1
  17    9   55 1
  18   10   11 1
  19   10   12 1
  20   10   13 1
  21   10   37 1
  22   11   12 1
  23   11   38 1
  24   11   39 1
  25   12   40 1
  26   12   41 1
  27   13   14 ar
  28   14   15 ar
  29   14   42 1
  30   15   17 ar
  31   15   19 1
  32   16   17 ar
  33   16   18 ar
  34   17   20 ar
  35   18   21 ar
  36   18   43 1
  37   20   22 ar
  38   20   44 1
  39   21   22 ar
  40   21   45 1
  41   22   46 1
  42   23   28 1
  43   23   47 1
  44   23   48 1
  45   24   26 2
  46   24   27 1
  47   24   28 1
  48   25   30 1
  49   25   49 1
  50   25   50 1
  51   30   32 ar
  52   30   33 ar
  53   31   51 1
  54   31   52 1
  55   31   53 1
  56   32   34 ar
  57   32   56 1
  58   33   35 ar
  59   33   57 1
  60   34   36 ar
  61   34   58 1
  62   35   36 ar
  63   35   59 1
  64   36   60 1

#	End of record

#	Name: 9540934
#	Creating user name:	landrgr1
#	Creation time:	28. 01. 2015 13:52

#	Modifying user name:	landrgr1
#	Modification time:	28. 01. 2015 13:52

#	Program:	corina 3.48 0006  22.01.2010

@<TRIPOS>MOLECULE
9540934
  56   57    0    0    0
SMALL
NO_CHARGES


@<TRIPOS>ATOM
   1 Br1            2.8774    -2.9886    -0.0295 Br      
   2 O2            -0.0164     1.3557     0.0095 O.3     
   3 O3            -2.3810    -0.0563     0.0245 O.3     
   4 O4            -0.0966     3.9612     0.0243 O.2     
   5 N5             0.4165    -4.7570    -1.3665 N.3     
   6 N6             0.8527    -8.1501    -2.8718 N.3     
   7 N7             2.0878     4.3484     0.0055 N.am    
   8 C8             0.4492    -6.2249    -1.4130 C.3     
   9 C9             0.8200    -6.6822    -2.8252 C.3     
  10 C10            0.0630    -4.2806    -0.0226 C.3     
  11 C11            0.0395    -2.7739    -0.0137 C.ar    
  12 C12           -1.1691    -2.1029     0.0014 C.ar    
  13 C13            1.2274    -2.0650    -0.0160 C.ar    
  14 C14           -1.1926    -0.7176     0.0096 C.ar    
  15 C15            0.0021    -0.0041     0.0020 C.ar    
  16 C16            1.2105    -0.6819    -0.0079 C.ar    
  17 C17           -0.4878    -8.7134    -2.6627 C.3     
  18 C18            1.4316    -8.6239    -4.1360 C.3     
  19 C19            1.2479     2.0217     0.0010 C.3     
  20 C20            1.8762     5.7980     0.0153 C.3     
  21 C21            3.2094     6.5003     0.0063 C.ar    
  22 C22            1.0302     3.5129     0.0111 C.2     
  23 C23            3.8095     6.8289    -1.1949 C.ar    
  24 C24            3.8297     6.8211     1.1993 C.ar    
  25 C25           -3.5669    -0.8536     0.0311 C.3     
  26 C26            5.0325     7.4731    -1.2031 C.ar    
  27 C27            5.0527     7.4654     1.1911 C.ar    
  28 C28            5.6553     7.7892    -0.0101 C.ar    
  29 H29            1.1909    -6.5944    -0.7049 H       
  30 H30           -0.5325    -6.6187    -1.1496 H       
  31 H31            1.8017    -6.2884    -3.0886 H       
  32 H32            0.0783    -6.3126    -3.5333 H       
  33 H33           -0.9213    -4.6610     0.2505 H       
  34 H34            0.8020    -4.6367     0.6952 H       
  35 H35            1.2961    -4.3659    -1.6690 H       
  36 H36           -2.0951    -2.6587     0.0066 H       
  37 H37            2.1391    -0.1305    -0.0089 H       
  38 H38           -1.1587    -8.3539    -3.4429 H       
  39 H39           -0.4348    -9.8014    -2.7021 H       
  40 H40           -0.8644    -8.4030    -1.6881 H       
  41 H41            2.4503    -8.2484    -4.2325 H       
  42 H42            1.4438    -9.7138    -4.1441 H       
  43 H43            0.8302    -8.2611    -4.9696 H       
  44 H44            1.8173     1.7317     0.8840 H       
  45 H45            1.8003     1.7413    -0.8958 H       
  46 H46            1.3068     6.0880    -0.8678 H       
  47 H47            1.3238     6.0785     0.9121 H       
  48 H48            2.9890     3.9899    -0.0051 H       
  49 H49            3.3230     6.5820    -2.1269 H       
  50 H50            3.3586     6.5686     2.1378 H       
  51 H51           -4.4417    -0.2034     0.0430 H       
  52 H52           -3.5902    -1.4776    -0.8623 H       
  53 H53           -3.5735    -1.4878     0.9175 H       
  54 H54            5.5017     7.7292    -2.1416 H       
  55 H55            5.5371     7.7163     2.1232 H       
  56 H56            6.6110     8.2922    -0.0165 H       
@<TRIPOS>BOND
   1    1   13 1
   2    2   15 1
   3    2   19 1
   4    3   14 1
   5    3   25 1
   6    4   22 2
   7    5    8 1
   8    5   10 1
   9    5   35 1
  10    6    9 1
  11    6   17 1
  12    6   18 1
  13    7   20 1
  14    7   22 am
  15    7   48 1
  16    8    9 1
  17    8   29 1
  18    8   30 1
  19    9   31 1
  20    9   32 1
  21   10   11 1
  22   10   33 1
  23   10   34 1
  24   11   12 ar
  25   11   13 ar
  26   12   14 ar
  27   12   36 1
  28   13   16 ar
  29   14   15 ar
  30   15   16 ar
  31   16   37 1
  32   17   38 1
  33   17   39 1
  34   17   40 1
  35   18   41 1
  36   18   42 1
  37   18   43 1
  38   19   22 1
  39   19   44 1
  40   19   45 1
  41   20   21 1
  42   20   46 1
  43   20   47 1
  44   21   23 ar
  45   21   24 ar
  46   23   26 ar
  47   23   49 1
  48   24   27 ar
  49   24   50 1
  50   25   51 1
  51   25   52 1
  52   25   53 1
  53   26   28 ar
  54   26   54 1
  55   27   28 ar
  56   27   55 1
  57   28   56 1

#	End of record

#	Name: 9104680
#	Creating user name:	landrgr1
#	Creation time:	28. 01. 2015 13:52

#	Modifying user name:	landrgr1
#	Modification time:	28. 01. 2015 13:52

#	Program:	corina 3.48 0006  22.01.2010

@<TRIPOS>MOLECULE
9104680
  33   34    0    0    0
SMALL
NO_CHARGES


@<TRIPOS>ATOM
   1 S1             0.3221     1.5340    -0.5747 S.3     
   2 O2            -2.1121     0.2187    -0.1802 O.2     
   3 O3            -2.6106    -5.4819     1.5122 O.2     
   4 O4            -1.1311    -4.0415     1.0799 O.2     
   5 N5            -1.6168    -1.9439    -0.1814 N.am    
   6 N6            -2.2975    -4.3920     1.0676 N.pl3   
   7 N7             2.5904     2.8974    -0.9467 N.ar    
   8 N8             2.8023     0.5939    -0.9020 N.ar    
   9 C9            -2.9672    -2.2997    -0.0942 C.ar    
  10 C10           -3.3344    -3.4935     0.5124 C.ar    
  11 C11           -5.6376    -3.0033     0.0780 C.ar    
  12 C12           -4.6684    -3.8419     0.5968 C.ar    
  13 C13           -3.9436    -1.4568    -0.6093 C.ar    
  14 C14           -5.2755    -1.8109    -0.5218 C.ar    
  15 C15           -7.0920    -3.3868     0.1714 C.3     
  16 C16           -1.2666    -0.6457    -0.2742 C.2     
  17 C17            0.1756    -0.2683    -0.4949 C.3     
  18 C18            2.0586     1.6888    -0.8306 C.ar    
  19 C19            3.8902     3.0483    -1.1390 C.ar    
  20 C20            4.1085     0.6753    -1.0929 C.ar    
  21 C21            4.6972     1.9240    -1.2186 C.ar    
  22 H22           -4.9547    -4.7705     1.0682 H       
  23 H23           -3.6615    -0.5253    -1.0774 H       
  24 H24           -6.0349    -1.1581    -0.9263 H       
  25 H25           -0.9327    -2.6315    -0.1750 H       
  26 H26           -7.5113    -2.9984     1.0995 H       
  27 H27           -7.6337    -2.9665    -0.6760 H       
  28 H28           -7.1829    -4.4729     0.1582 H       
  29 H29            0.5258    -0.7031    -1.4310 H       
  30 H30            0.7802    -0.6458     0.3298 H       
  31 H31            4.3177     4.0356    -1.2333 H       
  32 H32            4.7092    -0.2204    -1.1506 H       
  33 H33            5.7615     2.0188    -1.3754 H       
@<TRIPOS>BOND
   1    1   17 1
   2    1   18 1
   3    2   16 2
   4    3    6 2
   5    4    6 2
   6    5    9 1
   7    5   16 am
   8    5   25 1
   9    6   10 1
  10    7   18 ar
  11    7   19 ar
  12    8   18 ar
  13    8   20 ar
  14    9   10 ar
  15    9   13 ar
  16   10   12 ar
  17   11   12 ar
  18   11   14 ar
  19   11   15 1
  20   12   22 1
  21   13   14 ar
  22   13   23 1
  23   14   24 1
  24   15   26 1
  25   15   27 1
  26   15   28 1
  27   16   17 1
  28   17   29 1
  29   17   30 1
  30   19   21 ar
  31   19   31 1
  32   20   21 ar
  33   20   32 1
  34   21   33 1

#	End of record

#	Name: 8893255
#	Creating user name:	landrgr1
#	Creation time:	28. 01. 2015 13:52

#	Modifying user name:	landrgr1
#	Modification time:	28. 01. 2015 13:52

#	Program:	corina 3.48 0006  22.01.2010

@<TRIPOS>MOLECULE
8893255
  24   25    0    0    0
SMALL
NO_CHARGES


@<TRIPOS>ATOM
   1 S1             0.0139     1.6798    -0.5666 S.3     
   2 O2            -5.7531    -2.8012     0.7144 O.3     
   3 O3            -4.3671    -4.5352     0.6612 O.2     
   4 N4            -1.0886    -2.2335    -0.2557 N.ar    
   5 C5            -1.1969    -0.9071    -0.2477 C.ar    
   6 C6            -2.1191    -3.0105    -0.0037 C.ar    
   7 C7            -3.3713    -2.4601     0.2828 C.ar    
   8 C8            -0.0128    -0.0786    -0.5365 C.2     
   9 C9            -2.4208    -0.2895     0.0307 C.ar    
  10 C10           -3.5168    -1.0636     0.2981 C.ar    
  11 C11           -1.9483    -4.5077    -0.0245 C.3     
  12 C12            1.2205    -0.5519    -0.8190 C.2     
  13 C13            2.1690     0.4178    -1.0544 C.2     
  14 C14           -4.5244    -3.3342     0.5644 C.2     
  15 C15            1.7261     1.6778    -0.9678 C.2     
  16 H16           -2.4996     0.7876     0.0350 H       
  17 H17           -4.4728    -0.6106     0.5156 H       
  18 H18           -1.7880    -4.8692     0.9912 H       
  19 H19           -2.8450    -4.9699    -0.4374 H       
  20 H20           -1.0886    -4.7667    -0.6424 H       
  21 H21            1.4448    -1.6077    -0.8569 H       
  22 H22            3.1953     0.1793    -1.2914 H       
  23 H23            2.3293     2.5604    -1.1216 H       
  24 H24           -6.4781    -3.4143     0.8979 H       
@<TRIPOS>BOND
   1    1    8 1
   2    1   15 1
   3    2   14 1
   4    2   24 1
   5    3   14 2
   6    4    5 ar
   7    4    6 ar
   8    5    8 1
   9    5    9 ar
  10    6    7 ar
  11    6   11 1
  12    7   10 ar
  13    7   14 1
  14    8   12 2
  15    9   10 ar
  16    9   16 1
  17   10   17 1
  18   11   18 1
  19   11   19 1
  20   11   20 1
  21   12   13 1
  22   12   21 1
  23   13   15 2
  24   13   22 1
  25   15   23 1

#	End of record

#	Name: 8438614
#	Creating user name:	landrgr1
#	Creation time:	28. 01. 2015 13:52

#	Modifying user name:	landrgr1
#	Modification time:	28. 01. 2015 13:52

#	Program:	corina 3.48 0006  22.01.2010

@<TRIPOS>MOLECULE
8438614
  31   33    0    0    0
SMALL
NO_CHARGES


@<TRIPOS>ATOM
   1 S1            -0.0218     1.7596     0.0117 S.3     
   2 S2             7.1477     3.3027     1.3894 S.3     
   3 O3             4.3423     1.6699    -0.0305 O.2     
   4 N4             2.4953     2.8986    -0.0058 N.am    
   5 N5             1.2503    -0.3832    -0.0119 N.2     
   6 N6             2.1152     0.5366    -0.0153 N.2     
   7 C7             4.7095     4.0011    -0.0206 C.3     
   8 C8             6.1587     3.5882    -0.0368 C.2     
   9 C9             3.8371     2.7724    -0.0193 C.2     
  10 C10           -1.1795    -0.8926     0.0093 C.ar    
  11 C11            0.0021    -0.0041     0.0020 C.2     
  12 C12            1.6909     1.7657    -0.0046 C.2     
  13 C13            6.8879     3.3841    -1.1350 C.2     
  14 C14           -1.0143    -2.2784     0.0002 C.ar    
  15 C15           -2.4648    -0.3493     0.0311 C.ar    
  16 C16            8.2002     3.0102    -0.9025 C.2     
  17 C17            8.5368     2.9106     0.3843 C.2     
  18 C18           -2.1211    -3.1020     0.0075 C.ar    
  19 C19           -3.5633    -1.1840     0.0382 C.ar    
  20 C20           -3.3927    -2.5569     0.0233 C.ar    
  21 H21            4.5094     4.5897     0.8747 H       
  22 H22            4.4924     4.5999    -0.9051 H       
  23 H23            2.0912     3.7803     0.0031 H       
  24 H24            6.4848     3.5013    -2.1300 H       
  25 H25           -0.0223    -2.7051    -0.0130 H       
  26 H26           -2.5993     0.7223     0.0427 H       
  27 H27            8.8986     2.8135    -1.7025 H       
  28 H28            9.5131     2.6322     0.7528 H       
  29 H29           -1.9947    -4.1745     0.0004 H       
  30 H30           -4.5584    -0.7648     0.0551 H       
  31 H31           -4.2558    -3.2060     0.0283 H       
@<TRIPOS>BOND
   1    1   11 1
   2    1   12 1
   3    2    8 1
   4    2   17 1
   5    3    9 2
   6    4    9 am
   7    4   12 1
   8    4   23 1
   9    5    6 1
  10    5   11 2
  11    6   12 2
  12    7    8 1
  13    7    9 1
  14    7   21 1
  15    7   22 1
  16    8   13 2
  17   10   11 1
  18   10   14 ar
  19   10   15 ar
  20   13   16 1
  21   13   24 1
  22   14   18 ar
  23   14   25 1
  24   15   19 ar
  25   15   26 1
  26   16   17 2
  27   16   27 1
  28   17   28 1
  29   18   20 ar
  30   18   29 1
  31   19   20 ar
  32   19   30 1
  33   20   31 1

#	End of record

#	Name: 7858642
#	Creating user name:	landrgr1
#	Creation time:	28. 01. 2015 13:52

#	Modifying user name:	landrgr1
#	Modification time:	28. 01. 2015 13:52

#	Program:	corina 3.48 0006  22.01.2010

@<TRIPOS>MOLECULE
7858642
  53   54    0    0    0
SMALL
NO_CHARGES


@<TRIPOS>ATOM
   1 S1            -0.0172     1.4168     0.0098 S.o2    
   2 O2            -3.7722     7.1117    -3.1185 O.2     
   3 O3            -2.9438     4.7088    -2.4957 O.3     
   4 O4            -3.2155     2.5199    -2.3606 O.2     
   5 O5             0.0021    -0.0041     0.0020 O.2     
   6 O6             1.1617     2.2101     0.0028 O.2     
   7 N7            -5.7788     6.5835    -3.9036 N.am    
   8 N8            -0.9002     1.8797    -1.3124 N.am    
   9 C9            -8.5030     7.3406    -3.9805 C.3     
  10 C10           -7.4331     8.3383    -3.5310 C.3     
  11 C11           -8.1021     5.9293    -3.5449 C.3     
  12 C12           -6.0999     7.9865    -4.1988 C.3     
  13 C13           -6.7766     5.5503    -4.2128 C.3     
  14 C14           -9.8439     7.7094    -3.3426 C.3     
  15 C15           -4.5894     6.2500    -3.3645 C.2     
  16 C16           -4.2749     4.8065    -3.0675 C.3     
  17 C17           -1.1366     3.3017    -1.5741 C.3     
  18 C18           -2.5081     3.4811    -2.1722 C.2     
  19 C19           -0.0815     3.8226    -2.5520 C.3     
  20 C20           -0.9297     1.8941     1.4396 C.2     
  21 C21           -1.4069     0.9693     2.2606 C.2     
  22 C22           -2.1724     1.3697     3.4601 C.ar    
  23 C23           -2.6761     0.3986     4.3263 C.ar    
  24 C24           -2.3894     2.7206     3.7340 C.ar    
  25 C25           -3.3894     0.7791     5.4444 C.ar    
  26 C26           -3.1043     3.0878     4.8555 C.ar    
  27 C27           -3.6056     2.1199     5.7075 C.ar    
  28 H28           -8.5965     7.3728    -5.0660 H       
  29 H29           -7.7305     9.3460    -3.8210 H       
  30 H30           -7.3216     8.2888    -2.4479 H       
  31 H31           -7.9844     5.9026    -2.4616 H       
  32 H32           -8.8758     5.2225    -3.8448 H       
  33 H33           -5.3136     8.6316    -3.8069 H       
  34 H34           -6.1840     8.1231    -5.2769 H       
  35 H35           -6.9159     5.4882    -5.2921 H       
  36 H36           -6.4367     4.5879    -3.8302 H       
  37 H37          -10.1302     8.7140    -3.6537 H       
  38 H38          -10.6061     6.9989    -3.6626 H       
  39 H39           -9.7507     7.6778    -2.2571 H       
  40 H40           -4.3172     4.2281    -3.9904 H       
  41 H41           -5.0044     4.4140    -2.3590 H       
  42 H42           -1.0722     3.8587    -0.6394 H       
  43 H43           -1.2609     1.2094    -1.9136 H       
  44 H44           -0.2574     4.8805    -2.7467 H       
  45 H45            0.9105     3.6928    -2.1194 H       
  46 H46           -0.1460     3.2655    -3.4867 H       
  47 H47           -1.1001     2.9402     1.6470 H       
  48 H48           -1.2365    -0.0768     2.0532 H       
  49 H49           -2.5083    -0.6485     4.1218 H       
  50 H50           -1.9983     3.4771     3.0698 H       
  51 H51           -3.7801     0.0285     6.1154 H       
  52 H52           -3.2727     4.1330     5.0688 H       
  53 H53           -4.1648     2.4125     6.5839 H       
@<TRIPOS>BOND
   1    1    5 2
   2    1    6 2
   3    1    8 am
   4    1   20 1
   5    2   15 2
   6    3   16 1
   7    3   18 1
   8    4   18 2
   9    7   12 1
  10    7   13 1
  11    7   15 am
  12    8   17 1
  13    8   43 1
  14    9   10 1
  15    9   11 1
  16    9   14 1
  17    9   28 1
  18   10   12 1
  19   10   29 1
  20   10   30 1
  21   11   13 1
  22   11   31 1
  23   11   32 1
  24   12   33 1
  25   12   34 1
  26   13   35 1
  27   13   36 1
  28   14   37 1
  29   14   38 1
  30   14   39 1
  31   15   16 1
  32   16   40 1
  33   16   41 1
  34   17   18 1
  35   17   19 1
  36   17   42 1
  37   19   44 1
  38   19   45 1
  39   19   46 1
  40   20   21 2
  41   20   47 1
  42   21   22 1
  43   21   48 1
  44   22   23 ar
  45   22   24 ar
  46   23   25 ar
  47   23   49 1
  48   24   26 ar
  49   24   50 1
  50   25   27 ar
  51   25   51 1
  52   26   27 ar
  53   26   52 1
  54   27   53 1

#	End of record

#	Name: 7832117
#	Creating user name:	landrgr1
#	Creation time:	28. 01. 2015 13:52

#	Modifying user name:	landrgr1
#	Modification time:	28. 01. 2015 13:52

#	Program:	corina 3.48 0006  22.01.2010

@<TRIPOS>MOLECULE
7832117
  43   47    0    0    0
SMALL
NO_CHARGES


@<TRIPOS>ATOM
   1 O1             5.8358    -2.6892    -0.0683 O.2     
   2 O2             5.4498    -4.7633    -0.0728 O.2     
   3 N3            -0.0154     1.2845     0.0091 N.pl3   
   4 N4             0.0021    -0.0041     0.0020 N.2     
   5 N5             1.1935     1.7268    -0.0001 N.2     
   6 N6             2.0058     0.7250    -0.0132 N.2     
   7 N7             5.0441    -3.6148    -0.0640 N.pl3   
   8 C8            -1.2218     2.1156     0.0196 C.3     
   9 C9            -2.0834     4.4608     0.0365 C.3     
  10 C10           -3.3170     2.6857    -1.2163 C.3     
  11 C11           -3.3047     2.6721     1.2821 C.3     
  12 C12           -0.8234     3.5928     0.0256 C.3     
  13 C13           -2.0571     1.8178    -1.2272 C.3     
  14 C14           -2.0448     1.8042     1.2712 C.3     
  15 C15           -2.9187     4.1629    -1.2102 C.3     
  16 C16           -2.9064     4.1494     1.2882 C.3     
  17 C17           -4.1400     2.3743     0.0353 C.3     
  18 C18            1.2623    -0.3903    -0.0121 C.2     
  19 C19            1.7611    -1.7886    -0.0234 C.ar    
  20 C20            3.1305    -2.0419    -0.0380 C.ar    
  21 C21            0.8610    -2.8520    -0.0137 C.ar    
  22 C22            3.5890    -3.3440    -0.0480 C.ar    
  23 C23            1.3300    -4.1498    -0.0238 C.ar    
  24 C24            2.6912    -4.3959    -0.0436 C.ar    
  25 H25           -1.7995     5.5132     0.0409 H       
  26 H26           -3.9121     2.4735    -2.1045 H       
  27 H27           -3.8911     2.4503     2.1738 H       
  28 H28           -0.2283     3.8050     0.9139 H       
  29 H29           -0.2371     3.8147    -0.8661 H       
  30 H30           -1.4708     2.0396    -2.1189 H       
  31 H31           -2.3409     0.7654    -1.2315 H       
  32 H32           -2.3286     0.7518     1.2669 H       
  33 H33           -1.4497     2.0164     2.1594 H       
  34 H34           -3.8163     4.7813    -1.2024 H       
  35 H35           -2.3323     4.3848    -2.1019 H       
  36 H36           -2.3113     4.3615     2.1764 H       
  37 H37           -3.8039     4.7677     1.2960 H       
  38 H38           -5.0376     2.9927     0.0431 H       
  39 H39           -4.4239     1.3219     0.0310 H       
  40 H40            3.8325    -1.2212    -0.0418 H       
  41 H41           -0.2019    -2.6610     0.0021 H       
  42 H42            0.6332    -4.9749    -0.0159 H       
  43 H43            3.0541    -5.4131    -0.0514 H       
@<TRIPOS>BOND
   1    1    7 2
   2    2    7 2
   3    3    4 1
   4    3    5 1
   5    3    8 1
   6    4   18 2
   7    5    6 2
   8    6   18 1
   9    7   22 1
  10    8   12 1
  11    8   13 1
  12    8   14 1
  13    9   12 1
  14    9   15 1
  15    9   16 1
  16    9   25 1
  17   10   13 1
  18   10   15 1
  19   10   17 1
  20   10   26 1
  21   11   14 1
  22   11   16 1
  23   11   17 1
  24   11   27 1
  25   12   28 1
  26   12   29 1
  27   13   30 1
  28   13   31 1
  29   14   32 1
  30   14   33 1
  31   15   34 1
  32   15   35 1
  33   16   36 1
  34   16   37 1
  35   17   38 1
  36   17   39 1
  37   18   19 1
  38   19   20 ar
  39   19   21 ar
  40   20   22 ar
  41   20   40 1
  42   21   23 ar
  43   21   41 1
  44   22   24 ar
  45   23   24 ar
  46   23   42 1
  47   24   43 1

#	End of record

#	Name: 7816020
#	Creating user name:	landrgr1
#	Creation time:	28. 01. 2015 13:52

#	Modifying user name:	landrgr1
#	Modification time:	28. 01. 2015 13:52

#	Program:	corina 3.48 0006  22.01.2010

@<TRIPOS>MOLECULE
7816020
  33   35    0    0    0
SMALL
NO_CHARGES


@<TRIPOS>ATOM
   1 Cl1            7.5525     5.7580    -0.0392 Cl      
   2 S2            -0.0218     1.7577     0.0117 S.3     
   3 O3             1.0376     4.3440     0.0155 O.2     
   4 N4            -1.1015    -0.8148     0.0082 N.pl3   
   5 N5            -1.4854    -3.1501    -0.0491 N.2     
   6 N6             0.6860    -2.0962    -0.0193 N.pl3   
   7 N7             1.0728    -0.7466    -0.0130 N.2     
   8 C8            -2.5213    -0.4452     0.0438 C.3     
   9 C9            -3.2853    -1.6269     0.6606 C.3     
  10 C10           -2.9331    -2.9133    -0.0881 C.3     
  11 C11           -0.6722    -2.1253    -0.0197 C.2     
  12 C12            0.0021    -0.0041     0.0020 C.2     
  13 C13            1.7562     2.0963    -0.0035 C.3     
  14 C14            1.9840     3.5860     0.0024 C.2     
  15 C15            3.3543     4.1205    -0.0078 C.ar    
  16 C16            3.5695     5.5028    -0.0025 C.ar    
  17 C17            4.4486     3.2489    -0.0171 C.ar    
  18 C18            4.8562     5.9964    -0.0116 C.ar    
  19 C19            5.7297     3.7569    -0.0262 C.ar    
  20 C20            5.9352     5.1272    -0.0266 C.ar    
  21 H21           -2.6574     0.4453     0.6574 H       
  22 H22           -2.8813    -0.2583    -0.9679 H       
  23 H23           -3.0082    -1.7303     1.7097 H       
  24 H24           -4.3573    -1.4450     0.5851 H       
  25 H25           -3.2562    -2.8263    -1.1255 H       
  26 H26           -3.4484    -3.7536     0.3772 H       
  27 H27            1.2780    -2.8646    -0.0233 H       
  28 H28            2.2177     1.6547     0.8798 H       
  29 H29            2.2007     1.6643    -0.9001 H       
  30 H30            2.7294     6.1814     0.0085 H       
  31 H31            4.2898     2.1806    -0.0168 H       
  32 H32            5.0239     7.0633    -0.0075 H       
  33 H33            6.5754     3.0852    -0.0333 H       
@<TRIPOS>BOND
   1    1   20 1
   2    2   12 1
   3    2   13 1
   4    3   14 2
   5    4    8 1
   6    4   11 1
   7    4   12 1
   8    5   10 1
   9    5   11 2
  10    6    7 1
  11    6   11 1
  12    6   27 1
  13    7   12 2
  14    8    9 1
  15    8   21 1
  16    8   22 1
  17    9   10 1
  18    9   23 1
  19    9   24 1
  20   10   25 1
  21   10   26 1
  22   13   14 1
  23   13   28 1
  24   13   29 1
  25   14   15 1
  26   15   16 ar
  27   15   17 ar
  28   16   18 ar
  29   16   30 1
  30   17   19 ar
  31   17   31 1
  32   18   20 ar
  33   18   32 1
  34   19   20 ar
  35   19   33 1

#	End of record

#	Name: 7659976
#	Creating user name:	landrgr1
#	Creation time:	28. 01. 2015 13:52

#	Modifying user name:	landrgr1
#	Modification time:	28. 01. 2015 13:52

#	Program:	corina 3.48 0006  22.01.2010

@<TRIPOS>MOLECULE
7659976
  30   30    0    0    0
SMALL
NO_CHARGES


@<TRIPOS>ATOM
   1 O1             0.1590     1.2986    -0.1716 O.3     
   2 O2            -2.9647    -2.6360    -0.8152 O.2     
   3 O3             1.1791    -0.6590    -0.2743 O.2     
   4 N4            -0.9120    -2.2262    -0.0724 N.am    
   5 N5            -1.6511    -4.3989    -0.4991 N.am    
   6 C6            -1.1627    -0.7830    -0.0457 C.3     
   7 C7            -2.6224    -5.2686    -1.0077 C.ar    
   8 C8            -1.8356    -0.4067     1.2759 C.3     
   9 C9            -3.2013    -7.2636    -2.2055 C.ar    
  10 C10           -2.2404    -6.4075    -1.7048 C.ar    
  11 C11           -1.8818    -3.0713    -0.4745 C.2     
  12 C12           -3.9700    -4.9977    -0.8115 C.ar    
  13 C13           -4.5428    -6.9880    -2.0133 C.ar    
  14 C14            0.1443    -0.0436    -0.1722 C.2     
  15 C15           -4.9263    -5.8581    -1.3148 C.ar    
  16 C16           -2.7876    -8.4993    -2.9625 C.3     
  17 H17           -1.8152    -0.5122    -0.8757 H       
  18 H18           -0.0480    -2.5734     0.1994 H       
  19 H19           -2.0222     0.6671     1.2957 H       
  20 H20           -2.7810    -0.9414     1.3674 H       
  21 H21           -1.1831    -0.6775     2.1059 H       
  22 H22           -1.1929    -6.6230    -1.8556 H       
  23 H23           -0.8118    -4.7517    -0.1643 H       
  24 H24           -4.2701    -4.1155    -0.2656 H       
  25 H25           -5.2925    -7.6591    -2.4058 H       
  26 H26           -5.9747    -5.6481    -1.1622 H       
  27 H27           -2.6711    -9.3299    -2.2663 H       
  28 H28           -3.5519    -8.7470    -3.6990 H       
  29 H29           -1.8406    -8.3147    -3.4696 H       
  30 H30            1.0212     1.7282    -0.2552 H       
@<TRIPOS>BOND
   1    1   14 1
   2    1   30 1
   3    2   11 2
   4    3   14 2
   5    4    6 1
   6    4   11 am
   7    4   18 1
   8    5    7 1
   9    5   11 am
  10    5   23 1
  11    6    8 1
  12    6   14 1
  13    6   17 1
  14    7   10 ar
  15    7   12 ar
  16    8   19 1
  17    8   20 1
  18    8   21 1
  19    9   10 ar
  20    9   13 ar
  21    9   16 1
  22   10   22 1
  23   12   15 ar
  24   12   24 1
  25   13   15 ar
  26   13   25 1
  27   15   26 1
  28   16   27 1
  29   16   28 1
  30   16   29 1

#	End of record

#	Name: 7461390
#	Creating user name:	landrgr1
#	Creation time:	28. 01. 2015 13:52

#	Modifying user name:	landrgr1
#	Modification time:	28. 01. 2015 13:52

#	Program:	corina 3.48 0006  22.01.2010

@<TRIPOS>MOLECULE
7461390
  45   47    0    0    0
SMALL
NO_CHARGES


@<TRIPOS>ATOM
   1 O1             1.9292     1.1003     0.0898 O.2     
   2 O2            -2.4140     1.7857    -0.4262 O.2     
   3 O3             0.1398     5.3986    -0.2697 O.2     
   4 O4             3.1205     7.8108     0.3714 O.2     
   5 N5            -0.2660     1.4192    -0.1653 N.am    
   6 N6            -1.1702     3.5924    -0.3524 N.am    
   7 N7             2.6486     5.2008     0.1597 N.pl3   
   8 N8             3.9351     5.7555     0.1634 N.am    
   9 N9             7.9680     8.7597     0.2871 N.ar    
  10 C10           -0.5034     0.0382    -0.1405 C.ar    
  11 C11           -0.2614    -2.1291    -1.1372 C.ar    
  12 C12           -0.9713    -2.6883    -0.0910 C.ar    
  13 C13           -0.0262    -0.7681    -1.1647 C.ar    
  14 C14           -1.2116    -0.5272     0.9117 C.ar    
  15 C15            0.9985     1.8727    -0.0424 C.2     
  16 C16           -1.4436    -1.8883     0.9336 C.ar    
  17 C17            1.2221     3.3289    -0.0720 C.2     
  18 C18           -1.2999     2.2587    -0.3161 C.2     
  19 C19            0.2515    -3.0043    -2.2517 C.3     
  20 C20           -1.2266    -4.1733    -0.0642 C.3     
  21 C21            0.0350     4.1870    -0.2353 C.2     
  22 C22            2.4901     3.8668     0.0486 C.2     
  23 C23            4.0935     7.0893     0.2745 C.2     
  24 C24            5.4539     7.6759     0.2785 C.ar    
  25 C25            5.6406     9.0568     0.3927 C.ar    
  26 C26            6.5868     6.8639     0.1686 C.ar    
  27 C27            6.9268     9.5611     0.3925 C.ar    
  28 C28            7.8364     7.4528     0.1771 C.ar    
  29 H29            0.5282    -0.3318    -1.9825 H       
  30 H30           -1.5803     0.0970     1.7123 H       
  31 H31           -1.9979    -2.3280     1.7496 H       
  32 H32           -0.5010    -3.0703    -3.0375 H       
  33 H33            1.1661    -2.5742    -2.6598 H       
  34 H34            0.4604    -4.0013    -1.8639 H       
  35 H35           -0.4124    -4.6725     0.4610 H       
  36 H36           -2.1666    -4.3711     0.4509 H       
  37 H37           -1.2855    -4.5502    -1.0853 H       
  38 H38           -1.9611     4.1425    -0.4649 H       
  39 H39            3.3536     3.2181     0.0538 H       
  40 H40            1.8719     5.7768     0.2370 H       
  41 H41            4.7118     5.1796     0.0861 H       
  42 H42            4.7921     9.7193     0.4793 H       
  43 H43            6.4865     5.7923     0.0788 H       
  44 H44            7.0813    10.6264     0.4806 H       
  45 H45            8.7176     6.8339     0.0931 H       
@<TRIPOS>BOND
   1    1   15 2
   2    2   18 2
   3    3   21 2
   4    4   23 2
   5    5   10 1
   6    5   15 am
   7    5   18 am
   8    6   18 am
   9    6   21 am
  10    6   38 1
  11    7    8 1
  12    7   22 1
  13    7   40 1
  14    8   23 am
  15    8   41 1
  16    9   27 ar
  17    9   28 ar
  18   10   13 ar
  19   10   14 ar
  20   11   12 ar
  21   11   13 ar
  22   11   19 1
  23   12   16 ar
  24   12   20 1
  25   13   29 1
  26   14   16 ar
  27   14   30 1
  28   15   17 1
  29   16   31 1
  30   17   21 1
  31   17   22 2
  32   19   32 1
  33   19   33 1
  34   19   34 1
  35   20   35 1
  36   20   36 1
  37   20   37 1
  38   22   39 1
  39   23   24 1
  40   24   25 ar
  41   24   26 ar
  42   25   27 ar
  43   25   42 1
  44   26   28 ar
  45   26   43 1
  46   27   44 1
  47   28   45 1

#	End of record

#	Name: 7458270
#	Creating user name:	landrgr1
#	Creation time:	28. 01. 2015 13:52

#	Modifying user name:	landrgr1
#	Modification time:	28. 01. 2015 13:52

#	Program:	corina 3.48 0006  22.01.2010

@<TRIPOS>MOLECULE
7458270
  46   48    0    0    0
SMALL
NO_CHARGES


@<TRIPOS>ATOM
   1 S1             0.5252     1.2784    -0.4496 S.3     
   2 O2             2.2552    10.2243     1.1259 O.3     
   3 O3             4.4063    11.6746     0.1184 O.3     
   4 O4             2.2951     6.0399    -0.3945 O.2     
   5 O5             1.1601     4.0021    -0.4859 O.2     
   6 N6             4.4796     6.1401    -0.0077 N.am    
   7 N7             3.3420     4.1037    -0.0997 N.am    
   8 C8             3.3365     9.5890     0.5968 C.ar    
   9 C9             4.4100    10.3127     0.0915 C.ar    
  10 C10            2.4272    11.6005     1.4812 C.3     
  11 C11            3.1397    12.3105     0.3221 C.3     
  12 C12            4.4546     7.5407     0.0249 C.ar    
  13 C13            3.3610     8.2030     0.5640 C.ar    
  14 C14            5.5013     9.6472    -0.4472 C.ar    
  15 C15            5.5247     8.2664    -0.4809 C.ar    
  16 C16            0.7304    -0.4665    -0.3165 C.ar    
  17 C17           -0.3637    -1.3099    -0.4664 C.ar    
  18 C18            2.1452    -2.3708     0.0363 C.ar    
  19 C19            1.9881    -1.0031    -0.0669 C.ar    
  20 C20           -0.1990    -2.6771    -0.3619 C.ar    
  21 C21            1.0528    -3.2070    -0.1078 C.ar    
  22 C22           -1.7284    -0.7333    -0.7423 C.3     
  23 C23            2.2053     1.9084    -0.1827 C.3     
  24 C24            3.5084    -2.9535     0.3069 C.3     
  25 C25            3.3345     5.4493    -0.1753 C.2     
  26 C26            2.1969     3.4130    -0.2672 C.2     
  27 H27            1.4539    12.0607     1.6514 H       
  28 H28            3.0322    11.6740     2.3849 H       
  29 H29            3.2916    13.3606     0.5718 H       
  30 H30            2.5383    12.2306    -0.5835 H       
  31 H31            2.5289     7.6389     0.9586 H       
  32 H32            6.3344    10.2099    -0.8417 H       
  33 H33            6.3756     7.7512    -0.9015 H       
  34 H34            2.8415    -0.3508     0.0458 H       
  35 H35           -1.0489    -3.3332    -0.4783 H       
  36 H36            5.3211     5.6676     0.0903 H       
  37 H37            1.1785    -4.2765    -0.0262 H       
  38 H38           -1.8766    -0.6494    -1.8189 H       
  39 H39           -2.4913    -1.3877    -0.3205 H       
  40 H40           -1.8045     0.2541    -0.2870 H       
  41 H41            2.5560     1.6018     0.8028 H       
  42 H42            2.8701     1.5052    -0.9466 H       
  43 H43            3.6604    -3.0380     1.3829 H       
  44 H44            3.5783    -3.9413    -0.1486 H       
  45 H45            4.2726    -2.3026    -0.1180 H       
  46 H46            4.1715     3.6324     0.0753 H       
@<TRIPOS>BOND
   1    1   16 1
   2    1   23 1
   3    2    8 1
   4    2   10 1
   5    3    9 1
   6    3   11 1
   7    4   25 2
   8    5   26 2
   9    6   12 1
  10    6   25 am
  11    6   36 1
  12    7   25 am
  13    7   26 am
  14    7   46 1
  15    8    9 ar
  16    8   13 ar
  17    9   14 ar
  18   10   11 1
  19   10   27 1
  20   10   28 1
  21   11   29 1
  22   11   30 1
  23   12   13 ar
  24   12   15 ar
  25   13   31 1
  26   14   15 ar
  27   14   32 1
  28   15   33 1
  29   16   17 ar
  30   16   19 ar
  31   17   20 ar
  32   17   22 1
  33   18   19 ar
  34   18   21 ar
  35   18   24 1
  36   19   34 1
  37   20   21 ar
  38   20   35 1
  39   21   37 1
  40   22   38 1
  41   22   39 1
  42   22   40 1
  43   23   26 1
  44   23   41 1
  45   23   42 1
  46   24   43 1
  47   24   44 1
  48   24   45 1

#	End of record

#	Name: 7313806
#	Creating user name:	landrgr1
#	Creation time:	28. 01. 2015 13:52

#	Modifying user name:	landrgr1
#	Modification time:	28. 01. 2015 13:52

#	Program:	corina 3.48 0006  22.01.2010

@<TRIPOS>MOLECULE
7313806
  37   39    0    0    0
SMALL
NO_CHARGES


@<TRIPOS>ATOM
   1 O1            -2.6822    -7.0161    -0.0104 O.2     
   2 O2            -0.0164     1.3548     0.0095 O.3     
   3 N3            -5.6439    -5.3102     0.0273 N.pl3   
   4 N4            -4.9094    -6.5019     0.0139 N.am    
   5 N5            -5.2145    -3.0045     0.0352 N.2     
   6 N6            -2.3101    -4.1043     0.0020 N.2     
   7 N7            -2.3349    -2.8146     0.0092 N.2     
   8 C8            -4.7707    -4.2602     0.0246 C.2     
   9 C9            -6.9770    -5.0774     0.0462 C.2     
  10 C10           -3.4614    -4.7990     0.0092 C.2     
  11 C11           -7.4290    -3.7937     0.0559 C.2     
  12 C12           -6.5068    -2.7445     0.0462 C.2     
  13 C13           -3.5954    -6.2097     0.0029 C.2     
  14 C14           -7.9507    -6.2275     0.0559 C.3     
  15 C15           -6.9887    -1.3167     0.0585 C.3     
  16 C16           -1.1639    -2.1080     0.0019 C.ar    
  17 C17           -1.1876    -0.7120     0.0096 C.ar    
  18 C18            0.0612    -2.7806    -0.0081 C.ar    
  19 C19            0.0021    -0.0041     0.0020 C.ar    
  20 C20            1.2399    -2.0643    -0.0155 C.ar    
  21 C21            1.2141    -0.6814    -0.0137 C.ar    
  22 C22            1.2479     2.0209     0.0010 C.3     
  23 H23           -5.2869    -7.3954     0.0131 H       
  24 H24           -8.4892    -3.5885     0.0707 H       
  25 H25           -8.1714    -6.5081     1.0858 H       
  26 H26           -8.8716    -5.9282    -0.4445 H       
  27 H27           -7.5133    -7.0783    -0.4666 H       
  28 H28           -6.1312    -0.6438     0.0564 H       
  29 H29           -7.5982    -1.1313    -0.8259 H       
  30 H30           -7.5852    -1.1423     0.9540 H       
  31 H31           -2.1309    -0.1862     0.0210 H       
  32 H32            0.0850    -3.8603    -0.0096 H       
  33 H33            2.1404    -0.1262    -0.0202 H       
  34 H34            2.1861    -2.5849    -0.0232 H       
  35 H35            1.8173     1.7308     0.8840 H       
  36 H36            1.8003     1.7404    -0.8958 H       
  37 H37            1.0905     3.0994     0.0083 H       
@<TRIPOS>BOND
   1    1   13 2
   2    2   19 1
   3    2   22 1
   4    3    4 1
   5    3    8 1
   6    3    9 1
   7    4   13 am
   8    4   23 1
   9    5    8 1
  10    5   12 2
  11    6    7 2
  12    6   10 1
  13    7   16 1
  14    8   10 2
  15    9   11 2
  16    9   14 1
  17   10   13 1
  18   11   12 1
  19   11   24 1
  20   12   15 1
  21   14   25 1
  22   14   26 1
  23   14   27 1
  24   15   28 1
  25   15   29 1
  26   15   30 1
  27   16   17 ar
  28   16   18 ar
  29   17   19 ar
  30   17   31 1
  31   18   20 ar
  32   18   32 1
  33   19   21 ar
  34   20   21 ar
  35   20   34 1
  36   21   33 1
  37   22   35 1
  38   22   36 1
  39   22   37 1

#	End of record

#	Name: 7313089
#	Creating user name:	landrgr1
#	Creation time:	28. 01. 2015 13:52

#	Modifying user name:	landrgr1
#	Modification time:	28. 01. 2015 13:52

#	Program:	corina 3.48 0006  22.01.2010

@<TRIPOS>MOLECULE
7313089
  49   52    0    0    0
SMALL
NO_CHARGES


@<TRIPOS>ATOM
   1 S1             1.2132     1.6032     2.7112 S.3     
   2 O2             4.6455     4.1061     0.0426 O.2     
   3 N3             7.4940    -1.3647    -1.8956 N.pl3   
   4 N4             3.4027     0.7506     1.8526 N.pl3   
   5 N5             2.7777    -0.2894     2.5042 N.2     
   6 N6             3.0634     3.0347     1.1974 N.2     
   7 N7             5.5993    -0.1649     1.6166 N.2     
   8 C8             7.3479    -0.0245    -1.8949 C.2     
   9 C9             6.2561     0.2884    -1.1021 C.2     
  10 C10            6.5279    -1.9494    -1.1241 C.2     
  11 C11            5.7363    -0.9948    -0.6083 C.2     
  12 C12            0.7923    -1.0917     3.8047 C.3     
  13 C13            8.4908    -2.0604    -2.5927 C.ar    
  14 C14            5.7450     1.5819    -0.8232 C.2     
  15 C15            4.9192     1.7776     0.2650 C.2     
  16 C16            8.2206     0.9611    -2.6284 C.3     
  17 C17            1.6230    -0.0901     3.0447 C.2     
  18 C18            4.6919     0.7151     1.2833 C.2     
  19 C19            6.3755    -3.4303    -0.8902 C.3     
  20 C20            2.6924     1.9222     1.8019 C.2     
  21 C21           -0.2186    -1.7399     2.8567 C.3     
  22 C22            1.7048    -2.1701     4.3922 C.3     
  23 C23            4.2065     3.0582     0.4891 C.2     
  24 C24            9.4572    -2.7743    -1.8968 C.ar    
  25 C25            8.5107    -2.0420    -3.9809 C.ar    
  26 C26           10.4381    -3.4594    -2.5868 C.ar    
  27 C27            9.4941    -2.7291    -4.6653 C.ar    
  28 C28           10.4586    -3.4345    -3.9693 C.ar    
  29 H29            4.8859    -1.1412     0.0412 H       
  30 H30            0.2614    -0.5860     4.6113 H       
  31 H31            6.0022     2.4135    -1.4624 H       
  32 H32            7.8163     1.1322    -3.6260 H       
  33 H33            8.2453     1.9028    -2.0800 H       
  34 H34            9.2314     0.5613    -2.7096 H       
  35 H35            6.9539    -3.7211    -0.0132 H       
  36 H36            5.3239    -3.6659    -0.7264 H       
  37 H37            6.7384    -3.9751    -1.7618 H       
  38 H38           -0.8195    -2.4644     3.4064 H       
  39 H39           -0.8687    -0.9716     2.4382 H       
  40 H40            0.3122    -2.2456     2.0501 H       
  41 H41            2.4250    -1.7083     5.0676 H       
  42 H42            1.1039    -2.8946     4.9419 H       
  43 H43            2.2356    -2.6758     3.5856 H       
  44 H44            9.4421    -2.7936    -0.8171 H       
  45 H45            7.7577    -1.4912    -4.5251 H       
  46 H46           11.1900    -4.0149    -2.0461 H       
  47 H47            9.5099    -2.7154    -5.7451 H       
  48 H48           11.2268    -3.9707    -4.5066 H       
  49 H49            5.4279    -0.7882     2.3398 H       
@<TRIPOS>BOND
   1    1   17 1
   2    1   20 1
   3    2   23 2
   4    3    8 1
   5    3   10 1
   6    3   13 1
   7    4    5 1
   8    4   18 1
   9    4   20 1
  10    5   17 2
  11    6   20 2
  12    6   23 1
  13    7   18 2
  14    7   49 1
  15    8    9 2
  16    8   16 1
  17    9   11 1
  18    9   14 1
  19   10   11 2
  20   10   19 1
  21   11   29 1
  22   12   17 1
  23   12   21 1
  24   12   22 1
  25   12   30 1
  26   13   24 ar
  27   13   25 ar
  28   14   15 2
  29   14   31 1
  30   15   18 1
  31   15   23 1
  32   16   32 1
  33   16   33 1
  34   16   34 1
  35   19   35 1
  36   19   36 1
  37   19   37 1
  38   21   38 1
  39   21   39 1
  40   21   40 1
  41   22   41 1
  42   22   42 1
  43   22   43 1
  44   24   26 ar
  45   24   44 1
  46   25   27 ar
  47   25   45 1
  48   26   28 ar
  49   26   46 1
  50   27   28 ar
  51   27   47 1
  52   28   48 1

#	End of record

#	Name: 7309410
#	Creating user name:	landrgr1
#	Creation time:	28. 01. 2015 13:52

#	Modifying user name:	landrgr1
#	Modification time:	28. 01. 2015 13:52

#	Program:	corina 3.48 0006  22.01.2010

@<TRIPOS>MOLECULE
7309410
  38   40    0    0    0
SMALL
NO_CHARGES


@<TRIPOS>ATOM
   1 O1            -1.1300    -6.7055    -0.0239 O.2     
   2 O2            -0.0164     1.3551     0.0095 O.3     
   3 O3             2.4209   -10.4607    -0.0880 O.2     
   4 N4             1.9222    -8.2815    -0.0612 N.am    
   5 N5             0.5242    -8.2842    -0.0478 N.am    
   6 N6             3.6786    -6.7328    -0.0696 N.2     
   7 N7             1.1843    -4.7985    -0.0355 N.2     
   8 N8             0.0586    -4.1688    -0.0213 N.pl3   
   9 C9             2.3857    -6.9966    -0.0587 C.2     
  10 C10            1.2022    -6.1160    -0.0427 C.2     
  11 C11            0.0428    -7.0286    -0.0365 C.2     
  12 C12            2.8088    -9.3041    -0.0802 C.2     
  13 C13            4.5846    -7.7066    -0.0807 C.2     
  14 C14            4.1844    -9.0115    -0.0903 C.2     
  15 C15            0.0396    -2.7728    -0.0137 C.ar    
  16 C16            6.0533    -7.3690    -0.0935 C.3     
  17 C17           -1.1731    -2.0937     0.0016 C.ar    
  18 C18            1.2335    -2.0610    -0.0155 C.ar    
  19 C19            0.0021    -0.0041     0.0020 C.ar    
  20 C20           -1.1905    -0.7137     0.0096 C.ar    
  21 C21            1.2135    -0.6810    -0.0079 C.ar    
  22 C22            1.2479     2.0211     0.0010 C.3     
  23 C23            1.0269     3.5350     0.0112 C.3     
  24 H24           -0.0246    -9.0841    -0.0473 H       
  25 H25            4.9136    -9.8080    -0.1051 H       
  26 H26           -0.7748    -4.6651    -0.0160 H       
  27 H27            6.1772    -6.2861    -0.0918 H       
  28 H28            6.5308    -7.7907     0.7909 H       
  29 H29            6.5141    -7.7860    -0.9890 H       
  30 H30           -2.1013    -2.6458     0.0068 H       
  31 H31            2.1764    -2.5876    -0.0228 H       
  32 H32           -2.1327    -0.1858     0.0214 H       
  33 H33            2.1410    -0.1277    -0.0093 H       
  34 H34            1.8173     1.7311     0.8840 H       
  35 H35            1.8003     1.7406    -0.8958 H       
  36 H36            0.4575     3.8251    -0.8718 H       
  37 H37            0.4745     3.8155     0.9081 H       
  38 H38            1.9913     4.0430     0.0048 H       
@<TRIPOS>BOND
   1    1   11 2
   2    2   19 1
   3    2   22 1
   4    3   12 2
   5    4    5 1
   6    4    9 1
   7    4   12 am
   8    5   11 am
   9    5   24 1
  10    6    9 2
  11    6   13 1
  12    7    8 1
  13    7   10 2
  14    8   15 1
  15    8   26 1
  16    9   10 1
  17   10   11 1
  18   12   14 1
  19   13   14 2
  20   13   16 1
  21   14   25 1
  22   15   17 ar
  23   15   18 ar
  24   16   27 1
  25   16   28 1
  26   16   29 1
  27   17   20 ar
  28   17   30 1
  29   18   21 ar
  30   18   31 1
  31   19   20 ar
  32   19   21 ar
  33   20   32 1
  34   21   33 1
  35   22   23 1
  36   22   34 1
  37   22   35 1
  38   23   36 1
  39   23   37 1
  40   23   38 1

#	End of record

#	Name: 7285292
#	Creating user name:	landrgr1
#	Creation time:	28. 01. 2015 13:52

#	Modifying user name:	landrgr1
#	Modification time:	28. 01. 2015 13:52

#	Program:	corina 3.48 0006  22.01.2010

@<TRIPOS>MOLECULE
7285292
  33   35    0    0    0
SMALL
NO_CHARGES


@<TRIPOS>ATOM
   1 O1             0.2577     1.0207     0.5719 O.3     
   2 O2             0.8857    -0.4638    -0.9547 O.2     
   3 N3            -2.5859    -2.6448    -0.6603 N.ar    
   4 C4            -4.8495    -2.9594     0.1591 C.ar    
   5 C5            -4.8242    -4.3542     0.4046 C.ar    
   6 C6            -6.0456    -5.0679     0.4714 C.ar    
   7 C7            -3.5881    -2.1904     0.0847 C.ar    
   8 C8            -6.0675    -2.3245    -0.0161 C.ar    
   9 C9            -3.6145    -5.0395     0.5819 C.ar    
  10 C10           -7.2595    -4.3817     0.2928 C.ar    
  11 C11           -3.4652    -0.9968     0.7995 C.ar    
  12 C12           -6.0211    -6.4518     0.7149 C.ar    
  13 C13           -7.2567    -3.0418     0.0474 C.ar    
  14 C14           -1.4462    -1.9965    -0.7570 C.ar    
  15 C15           -1.2485    -0.7954    -0.0711 C.ar    
  16 C16           -2.2850    -0.2861     0.7255 C.ar    
  17 C17           -3.6275    -6.3818     0.8159 C.ar    
  18 C18           -4.8275    -7.0853     0.8828 C.ar    
  19 C19           -0.3411    -2.5553    -1.6157 C.3     
  20 C20            0.0330    -0.0728    -0.1826 C.2     
  21 H21           -6.0940    -1.2613    -0.2036 H       
  22 H22           -2.6766    -4.5063     0.5328 H       
  23 H23           -8.1951    -4.9189     0.3422 H       
  24 H24           -4.2844    -0.6343     1.4028 H       
  25 H25           -8.1954    -2.5260    -0.0919 H       
  26 H26           -6.9441    -7.0098     0.7690 H       
  27 H27           -2.1622     0.6401     1.2673 H       
  28 H28           -2.6939    -6.9075     0.9521 H       
  29 H29           -4.8113    -8.1489     1.0698 H       
  30 H30           -0.3705    -2.0837    -2.5980 H       
  31 H31            0.6215    -2.3548    -1.1451 H       
  32 H32           -0.4749    -3.6315    -1.7252 H       
  33 H33            1.1121     1.4606     0.4640 H       
@<TRIPOS>BOND
   1    1   20 1
   2    1   33 1
   3    2   20 2
   4    3    7 ar
   5    3   14 ar
   6    4    5 ar
   7    4    7 1
   8    4    8 ar
   9    5    6 ar
  10    5    9 ar
  11    6   10 ar
  12    6   12 ar
  13    7   11 ar
  14    8   13 ar
  15    8   21 1
  16    9   17 ar
  17    9   22 1
  18   10   13 ar
  19   10   23 1
  20   11   16 ar
  21   11   24 1
  22   12   18 ar
  23   12   26 1
  24   13   25 1
  25   14   15 ar
  26   14   19 1
  27   15   16 ar
  28   15   20 1
  29   16   27 1
  30   17   18 ar
  31   17   28 1
  32   18   29 1
  33   19   30 1
  34   19   31 1
  35   19   32 1

#	End of record

#	Name: 7253861
#	Creating user name:	landrgr1
#	Creation time:	28. 01. 2015 13:52

#	Modifying user name:	landrgr1
#	Modification time:	28. 01. 2015 13:52

#	Program:	corina 3.48 0006  22.01.2010

@<TRIPOS>MOLECULE
7253861
  33   34    0    0    0
SMALL
NO_CHARGES


@<TRIPOS>ATOM
   1 S1            -2.1371    -2.5062     1.6858 S.3     
   2 O2            -2.6562     0.6401     1.3165 O.3     
   3 O3            -0.3417     0.9269    -1.3952 O.2     
   4 O4            -1.5448     2.3883     0.5194 O.2     
   5 N5            -1.1415    -0.6364    -0.0060 N.am    
   6 N6             0.3292    -2.3178     0.6598 N.2     
   7 N7             1.2815    -1.8166    -0.0421 N.2     
   8 C8            -2.4709    -0.0225     0.0378 C.3     
   9 C9            -0.1511    -0.0886    -0.7472 C.2     
  10 C10           -0.8736    -1.7690     0.7036 C.2     
  11 C11            1.1089    -0.7251    -0.7502 C.2     
  12 C12           -2.1371     2.5363     2.7732 C.ar    
  13 C13            2.2442    -0.1594    -1.5638 C.3     
  14 C14           -2.0915     1.8543     1.4636 C.2     
  15 C15           -1.5528     3.7948     2.9292 C.ar    
  16 C16           -2.7697     1.9278     3.8591 C.ar    
  17 C17           -1.5990     4.4260     4.1549 C.ar    
  18 C18           -2.8086     2.5702     5.0792 C.ar    
  19 C19           -2.2225     3.8148     5.2283 C.ar    
  20 C20           -1.2269    -3.9174     2.3614 C.3     
  21 H21           -3.2314    -0.7935    -0.0854 H       
  22 H22           -2.5605     0.7080    -0.7663 H       
  23 H23            3.1267    -0.7875    -1.4420 H       
  24 H24            1.9595    -0.1329    -2.6157 H       
  25 H25            2.4677     0.8513    -1.2223 H       
  26 H26           -1.0655     4.2728     2.0923 H       
  27 H27           -3.2278     0.9566     3.7440 H       
  28 H28           -1.1471     5.3993     4.2771 H       
  29 H29           -3.2978     2.1009     5.9199 H       
  30 H30           -2.2558     4.3134     6.1858 H       
  31 H31           -0.8761    -4.5482     1.5446 H       
  32 H32           -0.3729    -3.5578     2.9353 H       
  33 H33           -1.8836    -4.4960     3.0110 H       
@<TRIPOS>BOND
   1    1   10 1
   2    1   20 1
   3    2    8 1
   4    2   14 1
   5    3    9 2
   6    4   14 2
   7    5    8 1
   8    5    9 am
   9    5   10 1
  10    6    7 1
  11    6   10 2
  12    7   11 2
  13    8   21 1
  14    8   22 1
  15    9   11 1
  16   11   13 1
  17   12   14 1
  18   12   15 ar
  19   12   16 ar
  20   13   23 1
  21   13   24 1
  22   13   25 1
  23   15   17 ar
  24   15   26 1
  25   16   18 ar
  26   16   27 1
  27   17   19 ar
  28   17   28 1
  29   18   19 ar
  30   18   29 1
  31   19   30 1
  32   20   31 1
  33   20   32 1
  34   20   33 1

#	End of record

#	Name: 7217990
#	Creating user name:	landrgr1
#	Creation time:	28. 01. 2015 13:52

#	Modifying user name:	landrgr1
#	Modification time:	28. 01. 2015 13:52

#	Program:	corina 3.48 0006  22.01.2010

@<TRIPOS>MOLECULE
7217990
  39   41    0    0    0
SMALL
NO_CHARGES


@<TRIPOS>ATOM
   1 S1             0.2859     1.1177    -0.9540 S.3     
   2 O2            -5.2719    -1.9064     0.2027 O.3     
   3 O3            -1.9492    -0.6596     0.7046 O.3     
   4 O4            -5.8109    -0.4531    -1.3767 O.2     
   5 O5            -3.9424    -2.6041    -2.0953 O.2     
   6 N6             2.5729     2.4343    -1.3767 N.ar    
   7 N7             2.7850     0.1707    -0.9473 N.ar    
   8 C8            -7.6312    -1.6569    -0.4801 C.3     
   9 C9            -8.4234    -0.8339    -1.4630 C.ar    
  10 C10           -1.3166    -1.0070    -0.4220 C.2     
  11 C11           -3.9611    -1.6145    -0.0163 C.2     
  12 C12            0.1371    -0.6503    -0.5964 C.3     
  13 C13           -6.1719    -1.2955    -0.5835 C.2     
  14 C14           -1.9592    -1.6714    -1.4035 C.2     
  15 C15           -8.6357    -1.3042    -2.7454 C.ar    
  16 C16           -8.9426     0.3888    -1.0804 C.ar    
  17 C17           -3.3265    -2.0024    -1.2289 C.2     
  18 C18           -3.2401    -0.9505     0.9143 C.2     
  19 C19           -9.3624    -0.5492    -3.6470 C.ar    
  20 C20           -9.6693     1.1438    -1.9820 C.ar    
  21 C21           -9.8771     0.6759    -3.2660 C.ar    
  22 C22            2.0361     1.2529    -1.1063 C.ar    
  23 C23            3.8830     2.5700    -1.4970 C.ar    
  24 C24            4.1015     0.2381    -1.0547 C.ar    
  25 C25            4.6956     1.4584    -1.3368 C.ar    
  26 H26           -7.9848    -1.4551     0.5310 H       
  27 H27           -7.7602    -2.7156    -0.7055 H       
  28 H28            0.5555    -1.2247    -1.4230 H       
  29 H29            0.6807    -0.8828     0.3194 H       
  30 H30           -1.4400    -1.9472    -2.3094 H       
  31 H31           -8.2336    -2.2613    -3.0431 H       
  32 H32           -8.7808     0.7541    -0.0770 H       
  33 H33           -3.7106    -0.6507     1.8390 H       
  34 H34           -9.5276    -0.9163    -4.6492 H       
  35 H35          -10.0752     2.0989    -1.6830 H       
  36 H36          -10.4445     1.2659    -3.9705 H       
  37 H37            4.3145     3.5351    -1.7178 H       
  38 H38            4.7065    -0.6471    -0.9244 H       
  39 H39            5.7684     1.5412    -1.4301 H       
@<TRIPOS>BOND
   1    1   12 1
   2    1   22 1
   3    2   11 1
   4    2   13 1
   5    3   10 1
   6    3   18 1
   7    4   13 2
   8    5   17 2
   9    6   22 ar
  10    6   23 ar
  11    7   22 ar
  12    7   24 ar
  13    8    9 1
  14    8   13 1
  15    8   26 1
  16    8   27 1
  17    9   15 ar
  18    9   16 ar
  19   10   12 1
  20   10   14 2
  21   11   17 1
  22   11   18 2
  23   12   28 1
  24   12   29 1
  25   14   17 1
  26   14   30 1
  27   15   19 ar
  28   15   31 1
  29   16   20 ar
  30   16   32 1
  31   18   33 1
  32   19   21 ar
  33   19   34 1
  34   20   21 ar
  35   20   35 1
  36   21   36 1
  37   23   25 ar
  38   23   37 1
  39   24   25 ar
  40   24   38 1
  41   25   39 1

#	End of record

#	Name: 7217955
#	Creating user name:	landrgr1
#	Creation time:	28. 01. 2015 13:52

#	Modifying user name:	landrgr1
#	Modification time:	28. 01. 2015 13:52

#	Program:	corina 3.48 0006  22.01.2010

@<TRIPOS>MOLECULE
7217955
  40   42    0    0    0
SMALL
NO_CHARGES


@<TRIPOS>ATOM
   1 S1             0.2841     1.1219    -0.9524 S.3     
   2 O2            -1.9500    -0.6574     0.7053 O.3     
   3 O3            -5.2715    -1.9073     0.2028 O.3     
   4 O4            -3.9416    -2.6019    -2.0959 O.2     
   5 O5            -5.8156    -0.4473    -1.3821 O.2     
   6 N6             2.5703     2.4402    -1.3743 N.ar    
   7 N7             2.7839     0.1766    -0.9456 N.ar    
   8 C8            -1.3171    -1.0041    -0.4212 C.2     
   9 C9             0.1365    -0.6464    -0.5953 C.3     
  10 C10           -1.9590    -1.6687    -1.4031 C.2     
  11 C11           -3.9612    -1.6135    -0.0163 C.2     
  12 C12           -3.3260    -2.0006    -1.2289 C.2     
  13 C13           -3.2408    -0.9493     0.9148 C.2     
  14 C14           -9.9230    -1.3858    -1.1736 C.ar    
  15 C15           -8.4981    -1.0316    -1.2750 C.2     
  16 C16          -10.8648    -0.7517    -1.9902 C.ar    
  17 C17          -10.3415    -2.3623    -0.2641 C.ar    
  18 C18           -7.5925    -1.6455    -0.4856 C.2     
  19 C19           -6.1768    -1.2936    -0.5864 C.2     
  20 C20          -12.1978    -1.0894    -1.8894 C.ar    
  21 C21          -11.6781    -2.6889    -0.1753 C.ar    
  22 C22            2.0343     1.2583    -1.1043 C.ar    
  23 C23          -12.6048    -2.0528    -0.9829 C.ar    
  24 C24            3.8803     2.5767    -1.4944 C.ar    
  25 C25            4.1004     0.2449    -1.0527 C.ar    
  26 C26            4.6936     1.4656    -1.3343 C.ar    
  27 H27            0.5554    -1.2202    -1.4220 H       
  28 H28            0.6800    -0.8787     0.3205 H       
  29 H29           -1.4394    -1.9438    -2.3090 H       
  30 H30           -3.7116    -0.6504     1.8396 H       
  31 H31           -8.1775    -0.2802    -1.9815 H       
  32 H32          -10.5488     0.0008    -2.6975 H       
  33 H33           -9.6195    -2.8596     0.3668 H       
  34 H34           -7.9132    -2.3968     0.2209 H       
  35 H35          -12.9264    -0.6006    -2.5193 H       
  36 H36          -12.0028    -3.4431     0.5263 H       
  37 H37          -13.6505    -2.3125    -0.9081 H       
  38 H38            4.3112     3.5422    -1.7148 H       
  39 H39            4.7058    -0.6399    -0.9226 H       
  40 H40            5.7663     1.5492    -1.4275 H       
@<TRIPOS>BOND
   1    1    9 1
   2    1   22 1
   3    2    8 1
   4    2   13 1
   5    3   11 1
   6    3   19 1
   7    4   12 2
   8    5   19 2
   9    6   22 ar
  10    6   24 ar
  11    7   22 ar
  12    7   25 ar
  13    8    9 1
  14    8   10 2
  15    9   27 1
  16    9   28 1
  17   10   12 1
  18   10   29 1
  19   11   12 1
  20   11   13 2
  21   13   30 1
  22   14   15 1
  23   14   16 ar
  24   14   17 ar
  25   15   18 2
  26   15   31 1
  27   16   20 ar
  28   16   32 1
  29   17   21 ar
  30   17   33 1
  31   18   19 1
  32   18   34 1
  33   20   23 ar
  34   20   35 1
  35   21   23 ar
  36   21   36 1
  37   23   37 1
  38   24   26 ar
  39   24   38 1
  40   25   26 ar
  41   25   39 1
  42   26   40 1

#	End of record

#	Name: 7217777
#	Creating user name:	landrgr1
#	Creation time:	28. 01. 2015 13:52

#	Modifying user name:	landrgr1
#	Modification time:	28. 01. 2015 13:52

#	Program:	corina 3.48 0006  22.01.2010

@<TRIPOS>MOLECULE
7217777
  41   44    0    0    0
SMALL
NO_CHARGES


@<TRIPOS>ATOM
   1 Cl1            7.2663    -0.6369    -1.2931 Cl      
   2 O2             1.6935    -2.4539    -1.3747 O.3     
   3 O3            -0.7732    -3.2941    -1.4403 O.2     
   4 N4            -3.2711    -8.0566    -0.5869 N.pl3   
   5 N5            -1.6400    -1.8540     0.0078 N.am    
   6 N6            -3.2056    -6.6684    -0.4521 N.2     
   7 N7            -4.2486    -9.9812    -0.7688 N.2     
   8 N8            -2.9760   -10.1745    -0.7918 N.2     
   9 C9            -4.2143    -4.4792    -0.2348 C.ar    
  10 C10           -4.3061    -5.9532    -0.3773 C.2     
  11 C11           -2.8897    -2.4813    -0.0474 C.ar    
  12 C12           -2.9687    -3.8595    -0.1808 C.ar    
  13 C13           -5.3749    -3.7105    -0.1603 C.ar    
  14 C14           -5.5737    -6.5707    -0.4314 C.2     
  15 C15           -4.0516    -1.7238     0.0318 C.ar    
  16 C16           -4.4916    -8.6869    -0.6420 C.2     
  17 C17           -5.2878    -2.3393    -0.0277 C.ar    
  18 C18           -5.6695    -7.9202    -0.5618 C.2     
  19 C19           -0.6023    -2.3564    -0.6902 C.2     
  20 C20            0.7703    -1.7532    -0.5387 C.3     
  21 C21           -2.3426    -9.0334    -0.6809 C.2     
  22 C22            2.9855    -2.0323    -1.3561 C.ar    
  23 C23            3.9348    -2.6676    -2.1434 C.ar    
  24 C24            3.3556    -0.9627    -0.5540 C.ar    
  25 C25            5.2474    -2.2377    -2.1231 C.ar    
  26 C26            4.6693    -0.5357    -0.5364 C.ar    
  27 C27            5.6158    -1.1745    -1.3178 C.ar    
  28 H28           -2.0667    -4.4502    -0.2422 H       
  29 H29           -6.3425    -4.1880    -0.2068 H       
  30 H30           -6.4691    -5.9701    -0.3687 H       
  31 H31           -3.9888    -0.6507     0.1359 H       
  32 H32           -6.1881    -1.7456     0.0295 H       
  33 H33           -1.5206    -1.0575     0.5484 H       
  34 H34           -6.6370    -8.3982    -0.6031 H       
  35 H35            1.0892    -1.8321     0.5006 H       
  36 H36            0.7402    -0.7035    -0.8308 H       
  37 H37           -1.2712    -8.8979    -0.6671 H       
  38 H38            3.6477    -3.4979    -2.7716 H       
  39 H39            2.6170    -0.4638     0.0560 H       
  40 H40            5.9867    -2.7320    -2.7359 H       
  41 H41            4.9577     0.2970     0.0879 H       
@<TRIPOS>BOND
   1    1   27 1
   2    2   20 1
   3    2   22 1
   4    3   19 2
   5    4    6 1
   6    4   16 1
   7    4   21 1
   8    5   11 1
   9    5   19 am
  10    5   33 1
  11    6   10 2
  12    7    8 1
  13    7   16 2
  14    8   21 2
  15    9   10 1
  16    9   12 ar
  17    9   13 ar
  18   10   14 1
  19   11   12 ar
  20   11   15 ar
  21   12   28 1
  22   13   17 ar
  23   13   29 1
  24   14   18 2
  25   14   30 1
  26   15   17 ar
  27   15   31 1
  28   16   18 1
  29   17   32 1
  30   18   34 1
  31   19   20 1
  32   20   35 1
  33   20   36 1
  34   21   37 1
  35   22   23 ar
  36   22   24 ar
  37   23   25 ar
  38   23   38 1
  39   24   26 ar
  40   24   39 1
  41   25   27 ar
  42   25   40 1
  43   26   27 ar
  44   26   41 1

#	End of record

#	Name: 7207659
#	Creating user name:	landrgr1
#	Creation time:	28. 01. 2015 13:52

#	Modifying user name:	landrgr1
#	Modification time:	28. 01. 2015 13:52

#	Program:	corina 3.48 0006  22.01.2010

@<TRIPOS>MOLECULE
7207659
  52   55    0    0    0
SMALL
NO_CHARGES


@<TRIPOS>ATOM
   1 O1            -0.0164     1.3548     0.0095 O.3     
   2 O2            -5.4920     5.1190     4.1547 O.2     
   3 N3            -6.0024     2.1405    -0.7793 N.pl3   
   4 N4            -2.8285     0.4734    -1.3281 N.pl3   
   5 N5            -4.8177     1.4331    -0.5651 N.2     
   6 N6            -6.5568     3.2231     3.7034 N.am    
   7 N7            -7.8803     3.1815    -0.7185 N.2     
   8 N8            -7.4822     3.2115    -1.9425 N.2     
   9 C9            -7.1145     2.3011     1.5079 C.3     
  10 C10           -7.0098     2.5429     0.0241 C.2     
  11 C11           -6.4550     3.4581     2.2609 C.3     
  12 C12           -6.3219     2.5820    -2.0393 C.2     
  13 C13           -4.0038     1.1792    -1.5630 C.2     
  14 C14           -2.5055     0.0185     0.0265 C.3     
  15 C15           -1.1893    -0.7153     0.0096 C.ar    
  16 C16           -5.4451     2.3140    -3.1078 C.2     
  17 C17           -4.3055     1.6130    -2.8688 C.2     
  18 C18            0.0021    -0.0041     0.0020 C.ar    
  19 C19           -1.1678    -2.0963     0.0072 C.ar    
  20 C20           -6.0414     4.1174     4.5699 C.2     
  21 C21           -6.1441     3.8802     6.0256 C.ar    
  22 C22            1.2119    -0.6824    -0.0136 C.ar    
  23 C23            0.0396    -2.7702    -0.0084 C.ar    
  24 C24            1.2280    -2.0639    -0.0217 C.ar    
  25 C25           -5.6113     4.8044     6.9257 C.ar    
  26 C26           -6.7793     2.7339     6.5058 C.ar    
  27 C27           -5.7109     4.5772     8.2828 C.ar    
  28 C28           -6.8722     2.5188     7.8654 C.ar    
  29 C29           -6.3369     3.4361     8.7522 C.ar    
  30 C30            1.2479     2.0208     0.0010 C.3     
  31 H31           -8.1647     2.2343     1.7919 H       
  32 H32           -6.6098     1.3685     1.7605 H       
  33 H33           -6.9597     4.3906     2.0083 H       
  34 H34           -5.4048     3.5249     1.9769 H       
  35 H35           -2.4331     0.8792     0.6913 H       
  36 H36           -3.2896    -0.6501     0.3819 H       
  37 H37           -2.2226     0.2825    -2.0612 H       
  38 H38           -5.6795     2.6532    -4.1060 H       
  39 H39           -3.6257     1.3963    -3.6795 H       
  40 H40           -6.9952     2.4238     4.0348 H       
  41 H41           -2.0948    -2.6504     0.0180 H       
  42 H42            2.1406    -0.1310    -0.0199 H       
  43 H43            0.0543    -3.8501    -0.0098 H       
  44 H44            2.1697    -2.5925    -0.0342 H       
  45 H45           -5.1218     5.6952     6.5606 H       
  46 H46           -7.1976     2.0171     5.8147 H       
  47 H47           -5.2991     5.2915     8.9803 H       
  48 H48           -7.3635     1.6322     8.2383 H       
  49 H49           -6.4119     3.2628     9.8155 H       
  50 H50            1.0905     3.0993     0.0083 H       
  51 H51            1.8173     1.7308     0.8840 H       
  52 H52            1.8003     1.7403    -0.8958 H       
@<TRIPOS>BOND
   1    1   18 1
   2    1   30 1
   3    2   20 2
   4    3    5 1
   5    3   10 1
   6    3   12 1
   7    4   13 1
   8    4   14 1
   9    4   37 1
  10    5   13 2
  11    6   11 1
  12    6   20 am
  13    6   40 1
  14    7    8 1
  15    7   10 2
  16    8   12 2
  17    9   10 1
  18    9   11 1
  19    9   31 1
  20    9   32 1
  21   11   33 1
  22   11   34 1
  23   12   16 1
  24   13   17 1
  25   14   15 1
  26   14   35 1
  27   14   36 1
  28   15   18 ar
  29   15   19 ar
  30   16   17 2
  31   16   38 1
  32   17   39 1
  33   18   22 ar
  34   19   23 ar
  35   19   41 1
  36   20   21 1
  37   21   25 ar
  38   21   26 ar
  39   22   24 ar
  40   22   42 1
  41   23   24 ar
  42   23   43 1
  43   24   44 1
  44   25   27 ar
  45   25   45 1
  46   26   28 ar
  47   26   46 1
  48   27   29 ar
  49   27   47 1
  50   28   29 ar
  51   28   48 1
  52   29   49 1
  53   30   50 1
  54   30   51 1
  55   30   52 1

#	End of record

#	Name: 7207385
#	Creating user name:	landrgr1
#	Creation time:	28. 01. 2015 13:52

#	Modifying user name:	landrgr1
#	Modification time:	28. 01. 2015 13:52

#	Program:	corina 3.48 0006  22.01.2010

@<TRIPOS>MOLECULE
7207385
  48   50    0    0    0
SMALL
NO_CHARGES


@<TRIPOS>ATOM
   1 S1            -0.0225     1.8097     0.0120 S.3     
   2 O2            -1.2633    -6.4545    -1.2353 O.3     
   3 O3            -2.3441     0.2498     0.0258 O.2     
   4 O4            -3.4383    -6.0143    -1.2060 O.2     
   5 N5            -1.6400    -1.8540     0.0078 N.am    
   6 N6            -2.0700    -4.2655    -1.2051 N.am    
   7 N7             2.6069     1.2730    -0.0160 N.ar    
   8 N8             3.8639     1.5323    -0.0270 N.ar    
   9 N9             7.5865     4.5446    -0.0487 N.ar    
  10 C10           -3.0134    -2.3769     0.0181 C.3     
  11 C11           -0.5200    -2.8053    -0.0142 C.3     
  12 C12           -3.1900    -3.3141    -1.1831 C.3     
  13 C13           -0.6966    -3.7425    -1.2154 C.3     
  14 C14           -1.4117    -0.5257     0.0127 C.2     
  15 C15           -2.2984    -5.5937    -1.2151 C.2     
  16 C16            0.0021    -0.0041     0.0020 C.3     
  17 C17           -1.5839    -7.8707    -1.2451 C.3     
  18 C18            1.6887     2.2294    -0.0021 C.ar    
  19 C19           -0.2897    -8.6864    -1.2678 C.3     
  20 C20            2.0801     3.5701     0.0009 C.ar    
  21 C21            4.3279     2.7744    -0.0252 C.ar    
  22 C22            3.4339     3.8511    -0.0110 C.ar    
  23 C23            5.7901     3.0221    -0.0383 C.ar    
  24 C24            6.6915     1.9535    -0.0527 C.ar    
  25 C25            6.2879     4.3235    -0.0371 C.ar    
  26 C26            8.0460     2.2376    -0.0650 C.ar    
  27 C27            8.4607     3.5571    -0.0628 C.ar    
  28 H28           -3.1877    -2.9290     0.9416 H       
  29 H29           -3.7201    -1.5504    -0.0559 H       
  30 H30            0.4199    -2.2617    -0.1095 H       
  31 H31           -0.5168    -3.3879     0.9070 H       
  32 H32           -3.1932    -2.7315    -2.1043 H       
  33 H33           -4.1299    -3.8578    -1.0878 H       
  34 H34            0.0101    -4.5690    -1.1414 H       
  35 H35           -0.5223    -3.1904    -2.1389 H       
  36 H36            0.5123    -0.3556    -0.8948 H       
  37 H37            0.5293    -0.3651     0.8851 H       
  38 H38           -2.1550    -8.1202    -0.3509 H       
  39 H39           -2.1754    -8.1032    -2.1306 H       
  40 H40            0.2814    -8.4369    -2.1621 H       
  41 H41            0.3019    -8.4539    -0.3823 H       
  42 H42           -0.5303    -9.7495    -1.2752 H       
  43 H43            1.3474     4.3634     0.0118 H       
  44 H44            3.7907     4.8705    -0.0096 H       
  45 H45            6.3398     0.9324    -0.0537 H       
  46 H46            5.6029     5.1584    -0.0261 H       
  47 H47            8.7714     1.4375    -0.0762 H       
  48 H48            9.5169     3.7824    -0.0723 H       
@<TRIPOS>BOND
   1    1   16 1
   2    1   18 1
   3    2   15 1
   4    2   17 1
   5    3   14 2
   6    4   15 2
   7    5   10 1
   8    5   11 1
   9    5   14 am
  10    6   12 1
  11    6   13 1
  12    6   15 am
  13    7    8 ar
  14    7   18 ar
  15    8   21 ar
  16    9   25 ar
  17    9   27 ar
  18   10   12 1
  19   10   28 1
  20   10   29 1
  21   11   13 1
  22   11   30 1
  23   11   31 1
  24   12   32 1
  25   12   33 1
  26   13   34 1
  27   13   35 1
  28   14   16 1
  29   16   36 1
  30   16   37 1
  31   17   19 1
  32   17   38 1
  33   17   39 1
  34   18   20 ar
  35   19   40 1
  36   19   41 1
  37   19   42 1
  38   20   22 ar
  39   20   43 1
  40   21   22 ar
  41   21   23 1
  42   22   44 1
  43   23   24 ar
  44   23   25 ar
  45   24   26 ar
  46   24   45 1
  47   25   46 1
  48   26   27 ar
  49   26   47 1
  50   27   48 1

#	End of record

#	Name: 7207377
#	Creating user name:	landrgr1
#	Creation time:	28. 01. 2015 13:52

#	Modifying user name:	landrgr1
#	Modification time:	28. 01. 2015 13:52

#	Program:	corina 3.48 0006  22.01.2010

@<TRIPOS>MOLECULE
7207377
  40   42    0    0    0
SMALL
NO_CHARGES


@<TRIPOS>ATOM
   1 S1            -0.0225     1.8097     0.0120 S.3     
   2 O2            -2.3441     0.2498     0.0258 O.2     
   3 N3            -1.6400    -1.8540     0.0078 N.am    
   4 N4             2.6073     1.2726    -0.0160 N.ar    
   5 N5             3.8643     1.5321    -0.0270 N.ar    
   6 N6             6.2463     4.2685    -0.0365 N.ar    
   7 C7            -2.0956    -4.4233    -1.0836 C.3     
   8 C8            -3.1799    -3.3459    -1.1573 C.3     
   9 C9            -0.7160    -3.7692    -1.1892 C.3     
  10 C10           -3.0127    -2.3777     0.0181 C.3     
  11 C11           -0.5209    -2.8058    -0.0142 C.3     
  12 C12           -1.4117    -0.5257     0.0127 C.2     
  13 C13            0.0021    -0.0041     0.0020 C.3     
  14 C14            1.6887     2.2294    -0.0021 C.ar    
  15 C15            2.0802     3.5701     0.0009 C.ar    
  16 C16            4.3281     2.7745    -0.0252 C.ar    
  17 C17            3.4340     3.8511    -0.0110 C.ar    
  18 C18            5.7900     3.0223    -0.0383 C.ar    
  19 C19            6.6733     1.9450    -0.0530 C.ar    
  20 C20            8.0354     2.1921    -0.0656 C.ar    
  21 C21            8.4695     3.5099    -0.0631 C.ar    
  22 C22            7.5369     4.5312    -0.0482 C.ar    
  23 H23           -2.1744    -4.9536    -0.1346 H       
  24 H24           -2.2272    -5.1277    -1.9050 H       
  25 H25           -3.0861    -2.7989    -2.0954 H       
  26 H26           -4.1626    -3.8146    -1.1056 H       
  27 H27            0.0549    -4.5392    -1.1602 H       
  28 H28           -0.6455    -3.2182    -2.1270 H       
  29 H29           -3.1958    -2.9047     0.9545 H       
  30 H30           -3.7189    -1.5537    -0.0840 H       
  31 H31            0.4170    -2.2643    -0.1376 H       
  32 H32           -0.5008    -3.3677     0.9196 H       
  33 H33            0.5123    -0.3556    -0.8948 H       
  34 H34            0.5293    -0.3651     0.8851 H       
  35 H35            1.3475     4.3634     0.0118 H       
  36 H36            3.7906     4.8706    -0.0089 H       
  37 H37            6.3006     0.9313    -0.0541 H       
  38 H38            8.7442     1.3774    -0.0767 H       
  39 H39            9.5255     3.7360    -0.0723 H       
  40 H40            7.8716     5.5581    -0.0466 H       
@<TRIPOS>BOND
   1    1   13 1
   2    1   14 1
   3    2   12 2
   4    3   10 1
   5    3   11 1
   6    3   12 am
   7    4    5 ar
   8    4   14 ar
   9    5   16 ar
  10    6   18 ar
  11    6   22 ar
  12    7    8 1
  13    7    9 1
  14    7   23 1
  15    7   24 1
  16    8   10 1
  17    8   25 1
  18    8   26 1
  19    9   11 1
  20    9   27 1
  21    9   28 1
  22   10   29 1
  23   10   30 1
  24   11   31 1
  25   11   32 1
  26   12   13 1
  27   13   33 1
  28   13   34 1
  29   14   15 ar
  30   15   17 ar
  31   15   35 1
  32   16   17 ar
  33   16   18 1
  34   17   36 1
  35   18   19 ar
  36   19   20 ar
  37   19   37 1
  38   20   21 ar
  39   20   38 1
  40   21   22 ar
  41   21   39 1
  42   22   40 1

#	End of record

#	Name: 7207304
#	Creating user name:	landrgr1
#	Creation time:	28. 01. 2015 13:52

#	Modifying user name:	landrgr1
#	Modification time:	28. 01. 2015 13:52

#	Program:	corina 3.48 0006  22.01.2010

@<TRIPOS>MOLECULE
7207304
  33   35    0    0    0
SMALL
NO_CHARGES


@<TRIPOS>ATOM
   1 S1            -0.0225     1.8097     0.0120 S.3     
   2 N2             3.8639     1.5323    -0.0270 N.ar    
   3 N3             2.6069     1.2730    -0.0160 N.ar    
   4 N4             7.5865     4.5447    -0.0500 N.ar    
   5 C5            -1.4117    -0.5257     0.0127 C.ar    
   6 C6             0.0021    -0.0041     0.0020 C.3     
   7 C7             4.3279     2.7745    -0.0252 C.ar    
   8 C8             5.7901     3.0221    -0.0388 C.ar    
   9 C9            -2.0716    -0.7585    -1.1795 C.ar    
  10 C10           -2.0468    -0.7767     1.2146 C.ar    
  11 C11            1.6887     2.2294    -0.0021 C.ar    
  12 C12            3.4339     3.8511    -0.0110 C.ar    
  13 C13            2.0801     3.5701     0.0009 C.ar    
  14 C14           -3.3685    -1.2369    -1.1696 C.ar    
  15 C15           -3.3436    -1.2552     1.2245 C.ar    
  16 C16            6.6915     1.9536    -0.0536 C.ar    
  17 C17           -4.0053    -1.4830     0.0323 C.ar    
  18 C18            6.2879     4.3235    -0.0375 C.ar    
  19 C19            8.0460     2.2376    -0.0664 C.ar    
  20 C20            8.4607     3.5572    -0.0641 C.ar    
  21 H21            0.5123    -0.3556    -0.8948 H       
  22 H22            0.5293    -0.3651     0.8851 H       
  23 H23           -1.5740    -0.5663    -2.1185 H       
  24 H24           -1.5295    -0.5993     2.1460 H       
  25 H25            3.7907     4.8705    -0.0093 H       
  26 H26            1.3474     4.3634     0.0118 H       
  27 H27           -3.8843    -1.4181    -2.1011 H       
  28 H28           -3.8396    -1.4516     2.1635 H       
  29 H29            6.3398     0.9324    -0.0547 H       
  30 H30           -5.0187    -1.8564     0.0400 H       
  31 H31            5.6029     5.1585    -0.0258 H       
  32 H32            8.7714     1.4376    -0.0783 H       
  33 H33            9.5169     3.7824    -0.0741 H       
@<TRIPOS>BOND
   1    1    6 1
   2    1   11 1
   3    2    3 ar
   4    2    7 ar
   5    3   11 ar
   6    4   18 ar
   7    4   20 ar
   8    5    6 1
   9    5    9 ar
  10    5   10 ar
  11    6   21 1
  12    6   22 1
  13    7    8 1
  14    7   12 ar
  15    8   16 ar
  16    8   18 ar
  17    9   14 ar
  18    9   23 1
  19   10   15 ar
  20   10   24 1
  21   11   13 ar
  22   12   13 ar
  23   12   25 1
  24   13   26 1
  25   14   17 ar
  26   14   27 1
  27   15   17 ar
  28   15   28 1
  29   16   19 ar
  30   16   29 1
  31   17   30 1
  32   18   31 1
  33   19   20 ar
  34   19   32 1
  35   20   33 1

#	End of record

#	Name: 7207303
#	Creating user name:	landrgr1
#	Creation time:	28. 01. 2015 13:52

#	Modifying user name:	landrgr1
#	Modification time:	28. 01. 2015 13:52

#	Program:	corina 3.48 0006  22.01.2010

@<TRIPOS>MOLECULE
7207303
  33   35    0    0    0
SMALL
NO_CHARGES


@<TRIPOS>ATOM
   1 S1            -0.0225     1.8097     0.0120 S.3     
   2 N2             3.8643     1.5321    -0.0270 N.ar    
   3 N3             2.6073     1.2726    -0.0160 N.ar    
   4 N4             6.2463     4.2685    -0.0369 N.ar    
   5 C5            -1.4117    -0.5257     0.0127 C.ar    
   6 C6             0.0021    -0.0041     0.0020 C.3     
   7 C7            -2.0716    -0.7585    -1.1795 C.ar    
   8 C8            -2.0468    -0.7767     1.2146 C.ar    
   9 C9             4.3281     2.7745    -0.0252 C.ar    
  10 C10            1.6887     2.2294    -0.0021 C.ar    
  11 C11            5.7900     3.0223    -0.0388 C.ar    
  12 C12            3.4340     3.8511    -0.0110 C.ar    
  13 C13            2.0802     3.5701     0.0009 C.ar    
  14 C14           -3.3685    -1.2369    -1.1696 C.ar    
  15 C15           -3.3436    -1.2552     1.2245 C.ar    
  16 C16           -4.0053    -1.4830     0.0323 C.ar    
  17 C17            6.6733     1.9450    -0.0539 C.ar    
  18 C18            8.0354     2.1921    -0.0670 C.ar    
  19 C19            8.4695     3.5099    -0.0645 C.ar    
  20 C20            7.5369     4.5312    -0.0491 C.ar    
  21 H21            0.5123    -0.3556    -0.8948 H       
  22 H22            0.5293    -0.3651     0.8851 H       
  23 H23           -1.5740    -0.5663    -2.1185 H       
  24 H24           -1.5295    -0.5993     2.1460 H       
  25 H25            3.7906     4.8706    -0.0089 H       
  26 H26            1.3475     4.3634     0.0118 H       
  27 H27           -3.8843    -1.4181    -2.1011 H       
  28 H28           -3.8396    -1.4516     2.1635 H       
  29 H29           -5.0187    -1.8564     0.0400 H       
  30 H30            6.3006     0.9313    -0.0551 H       
  31 H31            8.7442     1.3774    -0.0785 H       
  32 H32            9.5255     3.7360    -0.0747 H       
  33 H33            7.8716     5.5581    -0.0472 H       
@<TRIPOS>BOND
   1    1    6 1
   2    1   10 1
   3    2    3 ar
   4    2    9 ar
   5    3   10 ar
   6    4   11 ar
   7    4   20 ar
   8    5    6 1
   9    5    7 ar
  10    5    8 ar
  11    6   21 1
  12    6   22 1
  13    7   14 ar
  14    7   23 1
  15    8   15 ar
  16    8   24 1
  17    9   11 1
  18    9   12 ar
  19   10   13 ar
  20   11   17 ar
  21   12   13 ar
  22   12   25 1
  23   13   26 1
  24   14   16 ar
  25   14   27 1
  26   15   16 ar
  27   15   28 1
  28   16   29 1
  29   17   18 ar
  30   17   30 1
  31   18   19 ar
  32   18   31 1
  33   19   20 ar
  34   19   32 1
  35   20   33 1

#	End of record

#	Name: 7207193
#	Creating user name:	landrgr1
#	Creation time:	28. 01. 2015 13:52

#	Modifying user name:	landrgr1
#	Modification time:	28. 01. 2015 13:52

#	Program:	corina 3.48 0006  22.01.2010

@<TRIPOS>MOLECULE
7207193
  38   40    0    0    0
SMALL
NO_CHARGES


@<TRIPOS>ATOM
   1 S1            -0.0225     1.8097     0.0120 S.3     
   2 O2            -2.3441     0.2498     0.0258 O.2     
   3 O3             6.3691     4.2432    -0.0377 O.3     
   4 N4            -1.6400    -1.8540     0.0078 N.am    
   5 N5             2.6061     1.2726    -0.0160 N.ar    
   6 N6             3.8632     1.5335    -0.0270 N.ar    
   7 C7            -2.0956    -4.4233    -1.0836 C.3     
   8 C8            -3.1799    -3.3459    -1.1573 C.3     
   9 C9            -0.7160    -3.7692    -1.1892 C.3     
  10 C10           -3.0127    -2.3777     0.0181 C.3     
  11 C11           -0.5209    -2.8058    -0.0142 C.3     
  12 C12           -1.4117    -0.5257     0.0127 C.2     
  13 C13            0.0021    -0.0041     0.0020 C.3     
  14 C14            1.6887     2.2294    -0.0021 C.ar    
  15 C15            2.0793     3.5706     0.0009 C.ar    
  16 C16            4.3225     2.7797    -0.0252 C.ar    
  17 C17            3.4218     3.8538    -0.0108 C.ar    
  18 C18            5.7773     3.0330    -0.0377 C.2     
  19 C19            6.7525     2.0851    -0.0516 C.2     
  20 C20            7.9838     2.7698    -0.0604 C.2     
  21 C21            7.7029     4.0878    -0.0514 C.2     
  22 H22           -2.1744    -4.9536    -0.1346 H       
  23 H23           -2.2272    -5.1277    -1.9050 H       
  24 H24           -3.0861    -2.7989    -2.0954 H       
  25 H25           -4.1626    -3.8146    -1.1056 H       
  26 H26            0.0549    -4.5392    -1.1602 H       
  27 H27           -0.6455    -3.2182    -2.1270 H       
  28 H28           -3.1958    -2.9047     0.9545 H       
  29 H29           -3.7189    -1.5537    -0.0840 H       
  30 H30            0.4170    -2.2643    -0.1376 H       
  31 H31           -0.5008    -3.3677     0.9196 H       
  32 H32            0.5123    -0.3556    -0.8948 H       
  33 H33            0.5293    -0.3651     0.8851 H       
  34 H34            1.3451     4.3626     0.0118 H       
  35 H35            3.7743     4.8747    -0.0094 H       
  36 H36            6.6105     1.0145    -0.0547 H       
  37 H37            8.9670     2.3229    -0.0717 H       
  38 H38            8.4298     4.8865    -0.0554 H       
@<TRIPOS>BOND
   1    1   13 1
   2    1   14 1
   3    2   12 2
   4    3   18 1
   5    3   21 1
   6    4   10 1
   7    4   11 1
   8    4   12 am
   9    5    6 ar
  10    5   14 ar
  11    6   16 ar
  12    7    8 1
  13    7    9 1
  14    7   22 1
  15    7   23 1
  16    8   10 1
  17    8   24 1
  18    8   25 1
  19    9   11 1
  20    9   26 1
  21    9   27 1
  22   10   28 1
  23   10   29 1
  24   11   30 1
  25   11   31 1
  26   12   13 1
  27   13   32 1
  28   13   33 1
  29   14   15 ar
  30   15   17 ar
  31   15   34 1
  32   16   17 ar
  33   16   18 1
  34   17   35 1
  35   18   19 2
  36   19   20 1
  37   19   36 1
  38   20   21 2
  39   20   37 1
  40   21   38 1

#	End of record

#	Name: 7207124
#	Creating user name:	landrgr1
#	Creation time:	28. 01. 2015 13:52

#	Modifying user name:	landrgr1
#	Modification time:	28. 01. 2015 13:52

#	Program:	corina 3.48 0006  22.01.2010

@<TRIPOS>MOLECULE
7207124
  41   43    0    0    0
SMALL
NO_CHARGES


@<TRIPOS>ATOM
   1 S1            -0.3632     1.9410    -0.0763 S.3     
   2 O2             5.7527     4.9436    -0.6737 O.3     
   3 O3            -2.5247     0.1772     0.1249 O.2     
   4 N4            -1.6400    -1.8540     0.0078 N.am    
   5 N5             3.5111     2.0181    -0.4764 N.ar    
   6 N6             2.2889     1.6443    -0.3543 N.ar    
   7 C7            -3.1252    -3.6410    -0.6506 C.ar    
   8 C8            -2.9036    -2.4543     0.0354 C.ar    
   9 C9            -5.4021    -3.6418     0.0904 C.ar    
  10 C10           -4.3736    -4.2314    -0.6210 C.ar    
  11 C11           -3.9388    -1.8647     0.7495 C.ar    
  12 C12           -5.1845    -2.4600     0.7751 C.ar    
  13 C13           -2.0065    -4.2810    -1.4317 C.3     
  14 C14           -6.7630    -4.2884     0.1201 C.3     
  15 C15           -1.5319    -0.5106     0.0136 C.2     
  16 C16           -0.1776     0.1370    -0.1183 C.3     
  17 C17            3.8553     3.3007    -0.4963 C.ar    
  18 C18            5.2741     3.6849    -0.6391 C.2     
  19 C19            1.2949     2.5140    -0.2405 C.ar    
  20 C20            2.8674     4.2887    -0.3816 C.ar    
  21 C21            1.5626     3.8850    -0.2514 C.ar    
  22 C22            6.3245     2.8293    -0.7594 C.2     
  23 C23            7.4834     3.6227    -0.8708 C.2     
  24 C24            7.0878     4.9097    -0.8136 C.2     
  25 H25           -4.5466    -5.1545    -1.1544 H       
  26 H26           -3.7695    -0.9419     1.2844 H       
  27 H27           -5.9899    -2.0020     1.3302 H       
  28 H28           -0.8418    -2.4046    -0.0156 H       
  29 H29           -1.4600    -4.9688    -0.7865 H       
  30 H30           -2.4212    -4.8286    -2.2780 H       
  31 H31           -1.3292    -3.5084    -1.7956 H       
  32 H32           -6.8194    -4.9778     0.9625 H       
  33 H33           -7.5283    -3.5196     0.2280 H       
  34 H34           -6.9258    -4.8353    -0.8086 H       
  35 H35            0.2765    -0.1596    -1.0638 H       
  36 H36            0.4595    -0.1820     0.7066 H       
  37 H37            3.1259     5.3372    -0.3955 H       
  38 H38            0.7648     4.6071    -0.1594 H       
  39 H39            6.2791     1.7503    -0.7673 H       
  40 H40            8.4971     3.2668    -0.9811 H       
  41 H41            7.7369     5.7710    -0.8709 H       
@<TRIPOS>BOND
   1    1   16 1
   2    1   19 1
   3    2   18 1
   4    2   24 1
   5    3   15 2
   6    4    8 1
   7    4   15 am
   8    4   28 1
   9    5    6 ar
  10    5   17 ar
  11    6   19 ar
  12    7    8 ar
  13    7   10 ar
  14    7   13 1
  15    8   11 ar
  16    9   10 ar
  17    9   12 ar
  18    9   14 1
  19   10   25 1
  20   11   12 ar
  21   11   26 1
  22   12   27 1
  23   13   29 1
  24   13   30 1
  25   13   31 1
  26   14   32 1
  27   14   33 1
  28   14   34 1
  29   15   16 1
  30   16   35 1
  31   16   36 1
  32   17   18 1
  33   17   20 ar
  34   18   22 2
  35   19   21 ar
  36   20   21 ar
  37   20   37 1
  38   21   38 1
  39   22   23 1
  40   22   39 1
  41   23   24 2
  42   23   40 1
  43   24   41 1

#	End of record

#	Name: 7205897
#	Creating user name:	landrgr1
#	Creation time:	28. 01. 2015 13:52

#	Modifying user name:	landrgr1
#	Modification time:	28. 01. 2015 13:52

#	Program:	corina 3.48 0006  22.01.2010

@<TRIPOS>MOLECULE
7205897
  26   27    0    0    0
SMALL
NO_CHARGES


@<TRIPOS>ATOM
   1 S1            -0.0218     1.7577     0.0117 S.3     
   2 O2             3.9792    -6.0784    -0.0662 O.2     
   3 O3             3.0795    -7.9866    -0.0654 O.2     
   4 N4             1.2235    -1.9343    -0.0196 N.ar    
   5 N5             2.9785    -6.7728    -0.0592 N.pl3   
   6 N6             1.1585    -0.6524    -0.0125 N.ar    
   7 C7             0.2657    -4.1731    -0.0211 C.ar    
   8 C8             0.1379    -2.6955    -0.0129 C.ar    
   9 C9             1.5268    -4.7659    -0.0359 C.ar    
  10 C10           -0.8750    -4.9741    -0.0082 C.ar    
  11 C11            1.6398    -6.1416    -0.0429 C.ar    
  12 C12           -0.7501    -6.3483    -0.0154 C.ar    
  13 C13            0.5044    -6.9314    -0.0354 C.ar    
  14 C14           -1.1289    -2.1009     0.0025 C.ar    
  15 C15           -1.1971    -0.7199     0.0101 C.ar    
  16 C16            0.0021    -0.0041     0.0020 C.ar    
  17 C17            1.7399     2.1898    -0.0028 C.3     
  18 H18            2.4141    -4.1502    -0.0421 H       
  19 H19           -1.8548    -4.5200     0.0078 H       
  20 H20           -1.6332    -6.9699    -0.0054 H       
  21 H21            0.5975    -8.0073    -0.0413 H       
  22 H22           -2.0259    -2.7024     0.0078 H       
  23 H23           -2.1492    -0.2101     0.0216 H       
  24 H24            1.8481     3.2744     0.0020 H       
  25 H25            2.2236     1.7726     0.8804 H       
  26 H26            2.2066     1.7821    -0.8995 H       
@<TRIPOS>BOND
   1    1   16 1
   2    1   17 1
   3    2    5 2
   4    3    5 2
   5    4    6 ar
   6    4    8 ar
   7    5   11 1
   8    6   16 ar
   9    7    8 1
  10    7    9 ar
  11    7   10 ar
  12    8   14 ar
  13    9   11 ar
  14    9   18 1
  15   10   12 ar
  16   10   19 1
  17   11   13 ar
  18   12   13 ar
  19   12   20 1
  20   13   21 1
  21   14   15 ar
  22   14   22 1
  23   15   16 ar
  24   15   23 1
  25   17   24 1
  26   17   25 1
  27   17   26 1

#	End of record

#	Name: 7196621
#	Creating user name:	landrgr1
#	Creation time:	28. 01. 2015 13:52

#	Modifying user name:	landrgr1
#	Modification time:	28. 01. 2015 13:52

#	Program:	corina 3.48 0006  22.01.2010

@<TRIPOS>MOLECULE
7196621
  33   34    0    0    0
SMALL
NO_CHARGES


@<TRIPOS>ATOM
   1 S1            -0.0218     1.7577     0.0117 S.3     
   2 O2            -2.1468    -2.7129     0.0179 O.2     
   3 N3            -1.1715    -0.6974     0.0095 N.am    
   4 N4             1.1587    -0.6456    -0.0129 N.2     
   5 N5             1.2259    -1.9287    -0.0212 N.2     
   6 N6            -2.3697    -0.0415     0.0254 N.3     
   7 C7             0.0021    -0.0041     0.0020 C.2     
   8 C8             1.7562     2.0963    -0.0035 C.3     
   9 C9             2.7971     5.6234     1.0461 C.ar    
  10 C10           -1.1236    -2.0495     0.0065 C.2     
  11 C11            0.1437    -2.6711    -0.0096 C.2     
  12 C12            1.9840     3.5860     0.0024 C.2     
  13 C13            2.5737     4.1623     1.0404 C.2     
  14 C14            3.4175     6.2330     2.1372 C.ar    
  15 C15            2.3936     6.3981    -0.0420 C.ar    
  16 C16            0.2529    -4.1741    -0.0198 C.3     
  17 C17            3.6231     7.5974     2.1363 C.ar    
  18 C18            2.6050     7.7615    -0.0305 C.ar    
  19 C19            3.2152     8.3607     1.0570 C.ar    
  20 H20            2.2177     1.6547     0.8798 H       
  21 H21            2.2007     1.6643    -0.9001 H       
  22 H22            1.6668     4.1840    -0.8391 H       
  23 H23            2.8909     3.5642     1.8819 H       
  24 H24            3.7358     5.6383     2.9806 H       
  25 H25            1.9172     5.9315    -0.8916 H       
  26 H26            1.3041    -4.4619    -0.0367 H       
  27 H27           -0.2202    -4.5789     0.8749 H       
  28 H28           -0.2461    -4.5687    -0.9048 H       
  29 H29            4.1032     8.0705     2.9802 H       
  30 H30            2.2932     8.3623    -0.8720 H       
  31 H31           -3.1392    -0.6942     0.0291 H       
  32 H32           -2.4264     0.5888     0.8112 H       
  33 H33            3.3781     9.4283     1.0614 H       
@<TRIPOS>BOND
   1    1    7 1
   2    1    8 1
   3    2   10 2
   4    3    6 1
   5    3    7 1
   6    3   10 am
   7    4    5 1
   8    4    7 2
   9    5   11 2
  10    6   31 1
  11    6   32 1
  12    8   12 1
  13    8   20 1
  14    8   21 1
  15    9   13 1
  16    9   14 ar
  17    9   15 ar
  18   10   11 1
  19   11   16 1
  20   12   13 2
  21   12   22 1
  22   13   23 1
  23   14   17 ar
  24   14   24 1
  25   15   18 ar
  26   15   25 1
  27   16   26 1
  28   16   27 1
  29   16   28 1
  30   17   19 ar
  31   17   29 1
  32   18   19 ar
  33   18   30 1
  34   19   33 1

#	End of record

#	Name: 7191064
#	Creating user name:	landrgr1
#	Creation time:	28. 01. 2015 13:52

#	Modifying user name:	landrgr1
#	Modification time:	28. 01. 2015 13:52

#	Program:	corina 3.48 0006  22.01.2010

@<TRIPOS>MOLECULE
7191064
  47   49    0    0    0
SMALL
NO_CHARGES


@<TRIPOS>ATOM
   1 S1            -0.0219     1.7606     0.0117 S.3     
   2 S2             2.7894     3.1684    -0.0070 S.3     
   3 O3            11.8848     2.5522    -2.3214 O.3     
   4 O4            12.9404     2.0916    -0.3709 O.3     
   5 O5             0.1645    -2.6542    -0.0137 O.2     
   6 O6             5.1232     4.7100    -0.0205 O.2     
   7 N7             6.7933     3.2498    -0.0448 N.am    
   8 N8            -1.1121    -0.8398     0.0075 N.am    
   9 N9             1.2438    -0.3845    -0.0119 N.2     
  10 N10            2.1329     0.5097    -0.0156 N.2     
  11 C11           -1.6989    -4.5420    -0.0072 C.3     
  12 C12           -2.1564    -3.0821     0.0047 C.3     
  13 C13           -2.9165    -5.4591     0.1245 C.3     
  14 C14           -0.9764    -4.8393    -1.3227 C.3     
  15 C15            9.1732     3.7235    -0.0648 C.ar    
  16 C16           -0.9509    -2.1778    -0.0012 C.2     
  17 C17            7.7906     4.3228    -0.0482 C.3     
  18 C18           11.0658     2.9056    -1.2881 C.ar    
  19 C19           11.7148     2.6224    -0.0889 C.ar    
  20 C20            9.7946     3.4561    -1.2704 C.ar    
  21 C21            9.8182     3.4440     1.1257 C.ar    
  22 C22           11.0863     2.8938     1.1156 C.ar    
  23 C23           13.1991     2.4309    -1.7461 C.3     
  24 C24            5.4796     3.5508    -0.0305 C.2     
  25 C25            0.0021    -0.0041     0.0020 C.2     
  26 C26            4.4536     2.4470    -0.0271 C.3     
  27 C27            1.7429     1.7508    -0.0052 C.2     
  28 H28           -1.0203    -4.7170     0.8277 H       
  29 H29           -2.7633    -2.8843    -0.8788 H       
  30 H30           -2.7474    -2.8938     0.9011 H       
  31 H31           -3.5951    -5.2842    -0.7104 H       
  32 H32           -2.5906    -6.4992     0.1160 H       
  33 H33           -3.4312    -5.2473     1.0616 H       
  34 H34           -1.6550    -4.6644    -2.1575 H       
  35 H35           -0.1089    -4.1860    -1.4165 H       
  36 H36           -0.6504    -5.8794    -1.3312 H       
  37 H37            7.6532     4.9439    -0.9333 H       
  38 H38            7.6702     4.9337     0.8465 H       
  39 H39            9.2886     3.6761    -2.1988 H       
  40 H40            9.3302     3.6557     2.0656 H       
  41 H41           11.5872     2.6749     2.0471 H       
  42 H42           13.7605     1.6362    -2.2375 H       
  43 H43           13.7353     3.3776    -1.8127 H       
  44 H44            7.0783     2.3226    -0.0528 H       
  45 H45           -2.0041    -0.4588     0.0175 H       
  46 H46            4.5911     1.8259     0.8581 H       
  47 H47            4.5741     1.8361    -0.9218 H       
@<TRIPOS>BOND
   1    1   25 1
   2    1   27 1
   3    2   26 1
   4    2   27 1
   5    3   18 1
   6    3   23 1
   7    4   19 1
   8    4   23 1
   9    5   16 2
  10    6   24 2
  11    7   17 1
  12    7   24 am
  13    7   44 1
  14    8   16 am
  15    8   25 1
  16    8   45 1
  17    9   10 1
  18    9   25 2
  19   10   27 2
  20   11   12 1
  21   11   13 1
  22   11   14 1
  23   11   28 1
  24   12   16 1
  25   12   29 1
  26   12   30 1
  27   13   31 1
  28   13   32 1
  29   13   33 1
  30   14   34 1
  31   14   35 1
  32   14   36 1
  33   15   17 1
  34   15   20 ar
  35   15   21 ar
  36   17   37 1
  37   17   38 1
  38   18   19 ar
  39   18   20 ar
  40   19   22 ar
  41   20   39 1
  42   21   22 ar
  43   21   40 1
  44   22   41 1
  45   23   42 1
  46   23   43 1
  47   24   26 1
  48   26   46 1
  49   26   47 1

#	End of record

#	Name: 7190532
#	Creating user name:	landrgr1
#	Creation time:	28. 01. 2015 13:52

#	Modifying user name:	landrgr1
#	Modification time:	28. 01. 2015 13:52

#	Program:	corina 3.48 0006  22.01.2010

@<TRIPOS>MOLECULE
7190532
  36   39    0    0    0
SMALL
NO_CHARGES


@<TRIPOS>ATOM
   1 Br1            2.3502     8.3225     0.0243 Br      
   2 S2            -0.0218     1.7577     0.0117 S.3     
   3 N3             1.1924    -2.0337    -0.0202 N.pl3   
   4 N4             1.1529    -0.6381    -0.0124 N.2     
   5 N5             0.3638    -4.0388    -0.0238 N.2     
   6 N6             1.6461    -4.1483    -0.0387 N.2     
   7 N7             4.0674    -1.3955    -0.0603 N.ar    
   8 C8             0.0270    -2.7560    -0.0134 C.2     
   9 C9             2.2026    -2.9502    -0.0403 C.2     
  10 C10            0.0021    -0.0041     0.0020 C.2     
  11 C11            1.7399     2.1898    -0.0028 C.3     
  12 C12           -1.2053    -2.0766     0.0029 C.2     
  13 C13            1.8894     3.6894     0.0038 C.ar    
  14 C14            3.6495    -2.6574    -0.0606 C.ar    
  15 C15           -1.2126    -0.7170     0.0103 C.2     
  16 C16            1.9694     4.3705     1.2041 C.ar    
  17 C17            1.9522     4.3828    -1.1904 C.ar    
  18 C18            4.5689    -3.7080    -0.0804 C.ar    
  19 C19            2.1061     5.7459     1.2107 C.ar    
  20 C20            2.0894     5.7582    -1.1848 C.ar    
  21 C21            2.1633     6.4408     0.0160 C.ar    
  22 C22            5.9209    -3.4170    -0.0993 C.ar    
  23 C23            5.3495    -1.0934    -0.0776 C.ar    
  24 C24            6.3129    -2.0850    -0.0978 C.ar    
  25 H25            2.2236     1.7726     0.8804 H       
  26 H26            2.2066     1.7821    -0.8995 H       
  27 H27           -2.1337    -2.6284     0.0081 H       
  28 H28           -2.1512    -0.1829     0.0228 H       
  29 H29            1.9247     3.8279     2.1369 H       
  30 H30            1.8945     3.8498    -2.1279 H       
  31 H31            4.2293    -4.7332    -0.0807 H       
  32 H32            2.1679     6.2780     2.1485 H       
  33 H33            2.1381     6.2999    -2.1179 H       
  34 H34            6.6556    -4.2084    -0.1145 H       
  35 H35            5.6524    -0.0567    -0.0767 H       
  36 H36            7.3613    -1.8257    -0.1118 H       
@<TRIPOS>BOND
   1    1   21 1
   2    2   10 1
   3    2   11 1
   4    3    4 1
   5    3    8 1
   6    3    9 1
   7    4   10 2
   8    5    6 1
   9    5    8 2
  10    6    9 2
  11    7   14 ar
  12    7   23 ar
  13    8   12 1
  14    9   14 1
  15   10   15 1
  16   11   13 1
  17   11   25 1
  18   11   26 1
  19   12   15 2
  20   12   27 1
  21   13   16 ar
  22   13   17 ar
  23   14   18 ar
  24   15   28 1
  25   16   19 ar
  26   16   29 1
  27   17   20 ar
  28   17   30 1
  29   18   22 ar
  30   18   31 1
  31   19   21 ar
  32   19   32 1
  33   20   21 ar
  34   20   33 1
  35   22   24 ar
  36   22   34 1
  37   23   24 ar
  38   23   35 1
  39   24   36 1

#	End of record

#	Name: 7161988
#	Creating user name:	landrgr1
#	Creation time:	28. 01. 2015 13:52

#	Modifying user name:	landrgr1
#	Modification time:	28. 01. 2015 13:52

#	Program:	corina 3.48 0006  22.01.2010

@<TRIPOS>MOLECULE
7161988
  30   32    0    0    0
SMALL
NO_CHARGES


@<TRIPOS>ATOM
   1 O1            -3.5665     3.6383    -0.1818 O.2     
   2 O2            -1.5546    -0.5726    -0.0120 O.2     
   3 O3            -5.9408    -0.0933    -0.3741 O.2     
   4 N4            -0.0898     1.7278    -0.6795 N.pl3   
   5 N5            -4.7868     1.7711    -0.2805 N.am    
   6 N6            -3.7695    -0.3580    -0.1950 N.am    
   7 C7             0.0940     0.3182    -1.0348 C.3     
   8 C8             1.4120     0.2701    -1.8250 C.3     
   9 C9             1.8885     1.7048    -1.8569 C.ar    
  10 C10            0.9708     2.4894    -1.1754 C.ar    
  11 C11           -1.1339     2.2192     0.0197 C.2     
  12 C12            3.0123     2.2739    -2.4235 C.ar    
  13 C13            1.1992     3.8629    -1.0704 C.ar    
  14 C14           -2.3767     1.6214    -0.0818 C.2     
  15 C15            3.2317     3.6348    -2.3148 C.ar    
  16 C16            2.3222     4.4263    -1.6381 C.ar    
  17 C17           -3.6095     2.4224    -0.1840 C.2     
  18 C18           -2.5262     0.1552    -0.0930 C.2     
  19 C19           -4.8486     0.4322    -0.2845 C.2     
  20 H20            0.1703    -0.2918    -0.1347 H       
  21 H21           -0.7325    -0.0259    -1.6567 H       
  22 H22            2.1391    -0.3608    -1.3137 H       
  23 H23            1.2356    -0.0946    -2.8369 H       
  24 H24           -0.9991     3.0794     0.6586 H       
  25 H25            3.7215     1.6544    -2.9524 H       
  26 H26            0.4930     4.4867    -0.5425 H       
  27 H27            4.1110     4.0785    -2.7580 H       
  28 H28            2.4924     5.4894    -1.5533 H       
  29 H29           -5.6080     2.2836    -0.3444 H       
  30 H30           -3.8854    -1.3210    -0.2042 H       
@<TRIPOS>BOND
   1    1   17 2
   2    2   18 2
   3    3   19 2
   4    4    7 1
   5    4   10 1
   6    4   11 1
   7    5   17 am
   8    5   19 am
   9    5   29 1
  10    6   18 am
  11    6   19 am
  12    6   30 1
  13    7    8 1
  14    7   20 1
  15    7   21 1
  16    8    9 1
  17    8   22 1
  18    8   23 1
  19    9   10 ar
  20    9   12 ar
  21   10   13 ar
  22   11   14 2
  23   11   24 1
  24   12   15 ar
  25   12   25 1
  26   13   16 ar
  27   13   26 1
  28   14   17 1
  29   14   18 1
  30   15   16 ar
  31   15   27 1
  32   16   28 1

#	End of record

#	Name: 7151102
#	Creating user name:	landrgr1
#	Creation time:	28. 01. 2015 13:52

#	Modifying user name:	landrgr1
#	Modification time:	28. 01. 2015 13:52

#	Program:	corina 3.48 0006  22.01.2010

@<TRIPOS>MOLECULE
7151102
  33   35    0    0    0
SMALL
NO_CHARGES


@<TRIPOS>ATOM
   1 S1            -0.0218     1.7577     0.0117 S.3     
   2 O2            -4.5043    -1.6946    -4.3700 O.3     
   3 O3            -4.2779     0.3803    -5.2501 O.3     
   4 O4             1.0374     4.3441     0.0155 O.2     
   5 N5            -1.0909    -0.8153     0.0081 N.pl3   
   6 N6             1.0770    -0.7574    -0.0127 N.2     
   7 N7             3.2396     4.0757    -0.0070 N.am    
   8 C8            -2.4924    -0.3890     0.0246 C.3     
   9 C9            -2.9511    -0.1159    -1.3846 C.ar    
  10 C10           -3.5094    -1.1322    -2.1374 C.ar    
  11 C11           -3.9321    -0.8834    -3.4331 C.ar    
  12 C12           -3.7930     0.3923    -3.9742 C.ar    
  13 C13           -2.8145     1.1509    -1.9212 C.ar    
  14 C14           -3.2334     1.4062    -3.2136 C.ar    
  15 C15            0.0021    -0.0041     0.0020 C.2     
  16 C16           -0.6294    -2.1124     0.0018 C.2     
  17 C17           -5.0869    -0.8071    -5.3427 C.3     
  18 C18            0.7130    -2.0508    -0.0132 C.2     
  19 C19            1.7562     2.0963    -0.0035 C.3     
  20 C20            1.9840     3.5860     0.0024 C.2     
  21 H21           -3.1067    -1.1770     0.4604 H       
  22 H22           -2.5892     0.5186     0.6205 H       
  23 H23           -3.6149    -2.1208    -1.7156 H       
  24 H24           -2.3783     1.9424    -1.3299 H       
  25 H25           -3.1240     2.3964    -3.6308 H       
  26 H26           -1.2316    -3.0089     0.0078 H       
  27 H27           -5.0218    -1.2380    -6.3418 H       
  28 H28           -6.1231    -0.5856    -5.0869 H       
  29 H29            1.3846    -2.8965    -0.0239 H       
  30 H30            2.2177     1.6547     0.8798 H       
  31 H31            2.2007     1.6643    -0.9001 H       
  32 H32            3.3862     5.0346    -0.0032 H       
  33 H33            3.9966     3.4694    -0.0175 H       
@<TRIPOS>BOND
   1    1   15 1
   2    1   19 1
   3    2   11 1
   4    2   17 1
   5    3   12 1
   6    3   17 1
   7    4   20 2
   8    5    8 1
   9    5   15 1
  10    5   16 1
  11    6   15 2
  12    6   18 1
  13    7   20 am
  14    7   32 1
  15    7   33 1
  16    8    9 1
  17    8   21 1
  18    8   22 1
  19    9   10 ar
  20    9   13 ar
  21   10   11 ar
  22   10   23 1
  23   11   12 ar
  24   12   14 ar
  25   13   14 ar
  26   13   24 1
  27   14   25 1
  28   16   18 2
  29   16   26 1
  30   17   27 1
  31   17   28 1
  32   18   29 1
  33   19   20 1
  34   19   30 1
  35   19   31 1

#	End of record

#	Name: 7151062
#	Creating user name:	landrgr1
#	Creation time:	28. 01. 2015 13:52

#	Modifying user name:	landrgr1
#	Modification time:	28. 01. 2015 13:52

#	Program:	corina 3.48 0006  22.01.2010

@<TRIPOS>MOLECULE
7151062
  33   34    0    0    0
SMALL
NO_CHARGES


@<TRIPOS>ATOM
   1 Cl1           -4.3216     0.6998    -5.5937 Cl      
   2 S2            -0.0218     1.7577     0.0117 S.3     
   3 O3             1.0374     4.3441     0.0155 O.2     
   4 N4            -1.0909    -0.8153     0.0081 N.pl3   
   5 N5             1.0770    -0.7574    -0.0127 N.2     
   6 N6             3.2396     4.0757    -0.0070 N.am    
   7 C7            -2.4924    -0.3890     0.0246 C.3     
   8 C8            -2.9511    -0.1159    -1.3846 C.ar    
   9 C9             0.0021    -0.0041     0.0020 C.2     
  10 C10           -0.6294    -2.1124     0.0018 C.2     
  11 C11           -3.5095    -1.1313    -2.1385 C.ar    
  12 C12           -2.8185     1.1512    -1.9211 C.ar    
  13 C13            0.7130    -2.0508    -0.0132 C.2     
  14 C14           -3.9304    -0.8815    -3.4310 C.ar    
  15 C15           -3.2398     1.4025    -3.2132 C.ar    
  16 C16            1.7562     2.0963    -0.0035 C.3     
  17 C17           -3.7931     0.3852    -3.9703 C.ar    
  18 C18            1.9840     3.5860     0.0024 C.2     
  19 C19            3.4610     5.5239    -0.0013 C.3     
  20 H20           -3.1067    -1.1770     0.4604 H       
  21 H21           -2.5892     0.5186     0.6205 H       
  22 H22           -1.2316    -3.0089     0.0078 H       
  23 H23           -3.6167    -2.1201    -1.7174 H       
  24 H24           -2.3859     1.9451    -1.3303 H       
  25 H25            1.3846    -2.8965    -0.0239 H       
  26 H26            2.2177     1.6547     0.8798 H       
  27 H27            2.2007     1.6643    -0.9001 H       
  28 H28           -4.3660    -1.6749    -4.0201 H       
  29 H29           -3.1361     2.3925    -3.6322 H       
  30 H30            3.9966     3.4694    -0.0175 H       
  31 H31            4.5317     5.7277    -0.0105 H       
  32 H32            2.9995     5.9654    -0.8846 H       
  33 H33            3.0165     5.9559     0.8953 H       
@<TRIPOS>BOND
   1    1   17 1
   2    2    9 1
   3    2   16 1
   4    3   18 2
   5    4    7 1
   6    4    9 1
   7    4   10 1
   8    5    9 2
   9    5   13 1
  10    6   18 am
  11    6   19 1
  12    6   30 1
  13    7    8 1
  14    7   20 1
  15    7   21 1
  16    8   11 ar
  17    8   12 ar
  18   10   13 2
  19   10   22 1
  20   11   14 ar
  21   11   23 1
  22   12   15 ar
  23   12   24 1
  24   13   25 1
  25   14   17 ar
  26   14   28 1
  27   15   17 ar
  28   15   29 1
  29   16   18 1
  30   16   26 1
  31   16   27 1
  32   19   31 1
  33   19   32 1
  34   19   33 1

#	End of record

#	Name: 7150694
#	Creating user name:	landrgr1
#	Creation time:	28. 01. 2015 13:52

#	Modifying user name:	landrgr1
#	Modification time:	28. 01. 2015 13:52

#	Program:	corina 3.48 0006  22.01.2010

@<TRIPOS>MOLECULE
7150694
  42   43    0    0    0
SMALL
NO_CHARGES


@<TRIPOS>ATOM
   1 O1             0.1776     1.3454     0.0826 O.3     
   2 O2             5.5480     7.8551     0.4376 O.3     
   3 O3             3.3098     9.4206     0.7680 O.3     
   4 O4            -0.8825    -2.7598     1.9814 O.2     
   5 O5             2.3904     1.2124    -0.0923 O.2     
   6 O6            -0.8540     1.2017     2.3688 O.2     
   7 O7            -1.1578    -0.6542     3.3248 O.2     
   8 N8            -0.0564    -2.7489    -0.0827 N.am    
   9 N9            -0.8254    -0.0157     2.3422 N.pl3   
  10 C10            0.4204    -2.0548    -1.1490 C.2     
  11 C11            0.0972    -0.0066     0.0350 C.2     
  12 C12           -0.3868    -0.7192     1.1158 C.2     
  13 C13            0.5062    -0.7074    -1.1168 C.2     
  14 C14            2.9153     5.3286     0.3427 C.ar    
  15 C15           -0.4569    -2.1156     1.0354 C.2     
  16 C16            4.3148     7.2822     0.4604 C.ar    
  17 C17            4.1863     5.9148     0.3183 C.ar    
  18 C18            3.1806     8.0759     0.6280 C.ar    
  19 C19            1.7815     6.1323     0.5109 C.ar    
  20 C20            0.8595    -2.7983    -2.3840 C.3     
  21 C21            1.9192     7.4955     0.6519 C.ar    
  22 C22            2.7712     3.8747     0.1861 C.2     
  23 C23            1.5433     3.3109     0.2099 C.2     
  24 C24            1.4043     1.9086     0.0588 C.2     
  25 C25            6.6658     6.9820     0.2633 C.3     
  26 C26            2.1072    10.1740     0.9360 C.3     
  27 H27            0.8876    -0.1685    -1.9715 H       
  28 H28           -0.1126    -3.7162    -0.1294 H       
  29 H29            5.0641     5.2990     0.1891 H       
  30 H30            0.7993     5.6837     0.5299 H       
  31 H31            0.7206    -3.8688    -2.2323 H       
  32 H32            0.2633    -2.4717    -3.2360 H       
  33 H33            1.9124    -2.5924    -2.5770 H       
  34 H34            1.0438     8.1145     0.7824 H       
  35 H35            3.6466     3.2566     0.0519 H       
  36 H36            0.6679     3.9290     0.3440 H       
  37 H37            6.5703     6.4546    -0.6858 H       
  38 H38            7.5863     7.5658     0.2636 H       
  39 H39            6.6934     6.2597     1.0792 H       
  40 H40            1.4642    10.0304     0.0676 H       
  41 H41            1.5882     9.8348     1.8325 H       
  42 H42            2.3519    11.2314     1.0360 H       
@<TRIPOS>BOND
   1    1   11 1
   2    1   24 1
   3    2   16 1
   4    2   25 1
   5    3   18 1
   6    3   26 1
   7    4   15 2
   8    5   24 2
   9    6    9 2
  10    7    9 2
  11    8   10 1
  12    8   15 am
  13    8   28 1
  14    9   12 1
  15   10   13 2
  16   10   20 1
  17   11   12 2
  18   11   13 1
  19   12   15 1
  20   13   27 1
  21   14   17 ar
  22   14   19 ar
  23   14   22 1
  24   16   17 ar
  25   16   18 ar
  26   17   29 1
  27   18   21 ar
  28   19   21 ar
  29   19   30 1
  30   20   31 1
  31   20   32 1
  32   20   33 1
  33   21   34 1
  34   22   23 2
  35   22   35 1
  36   23   24 1
  37   23   36 1
  38   25   37 1
  39   25   38 1
  40   25   39 1
  41   26   40 1
  42   26   41 1
  43   26   42 1

#	End of record

#	Name: 7121039
#	Creating user name:	landrgr1
#	Creation time:	28. 01. 2015 13:52

#	Modifying user name:	landrgr1
#	Modification time:	28. 01. 2015 13:52

#	Program:	corina 3.48 0006  22.01.2010

@<TRIPOS>MOLECULE
7121039
  37   38    0    0    0
SMALL
NO_CHARGES


@<TRIPOS>ATOM
   1 S1            -0.0218     1.7596     0.0117 S.3     
   2 S2             6.4540     3.5041    -0.0401 S.3     
   3 O3             4.3423     1.6699    -0.0305 O.2     
   4 O4             9.6699     5.8819    -0.0572 O.3     
   5 O5             9.2417     3.7140    -0.0655 O.2     
   6 N6             2.4953     2.8986    -0.0058 N.am    
   7 N7             1.2503    -0.3832    -0.0119 N.2     
   8 N8             2.1152     0.5366    -0.0153 N.2     
   9 C9            -1.1795    -0.8926     0.0090 C.ar    
  10 C10           -2.1209    -3.1021     0.0065 C.ar    
  11 C11           -1.0143    -2.2786    -0.0001 C.ar    
  12 C12            0.0021    -0.0041     0.0020 C.2     
  13 C13           -2.4648    -0.3493     0.0189 C.ar    
  14 C14           -3.3928    -2.5568     0.0106 C.ar    
  15 C15           -3.5634    -1.1841     0.0196 C.ar    
  16 C16           -1.9445    -4.5987    -0.0038 C.3     
  17 C17            1.6909     1.7657    -0.0046 C.2     
  18 C18            4.7095     4.0011    -0.0206 C.3     
  19 C19            3.8370     2.7724    -0.0193 C.2     
  20 C20            7.3308     5.0921    -0.0394 C.3     
  21 C21            8.8173     4.8452    -0.0550 C.2     
  22 C22           11.0878     5.5694    -0.0725 C.3     
  23 H23           -0.0223    -2.7053    -0.0126 H       
  24 H24           -2.5993     0.7223     0.0263 H       
  25 H25           -4.2560    -3.2059     0.0154 H       
  26 H26           -4.5587    -0.7649     0.0276 H       
  27 H27           -1.8915    -4.9653     1.0213 H       
  28 H28           -2.7911    -5.0608    -0.5117 H       
  29 H29           -1.0234    -4.8523    -0.5285 H       
  30 H30            4.5094     4.5897     0.8747 H       
  31 H31            4.4924     4.5999    -0.9051 H       
  32 H32            2.0911     3.7803     0.0031 H       
  33 H33            7.0481     5.6636    -0.9234 H       
  34 H34            7.0651     5.6534     0.8564 H       
  35 H35           11.3404     4.9843     0.8118 H       
  36 H36           11.3234     4.9945    -0.9681 H       
  37 H37           11.6638     6.4947    -0.0727 H       
@<TRIPOS>BOND
   1    1   12 1
   2    1   17 1
   3    2   18 1
   4    2   20 1
   5    3   19 2
   6    4   21 1
   7    4   22 1
   8    5   21 2
   9    6   17 1
  10    6   19 am
  11    6   32 1
  12    7    8 1
  13    7   12 2
  14    8   17 2
  15    9   11 ar
  16    9   12 1
  17    9   13 ar
  18   10   11 ar
  19   10   14 ar
  20   10   16 1
  21   11   23 1
  22   13   15 ar
  23   13   24 1
  24   14   15 ar
  25   14   25 1
  26   15   26 1
  27   16   27 1
  28   16   28 1
  29   16   29 1
  30   18   19 1
  31   18   30 1
  32   18   31 1
  33   20   21 1
  34   20   33 1
  35   20   34 1
  36   22   35 1
  37   22   36 1
  38   22   37 1

#	End of record

#	Name: 7120051
#	Creating user name:	landrgr1
#	Creation time:	28. 01. 2015 13:52

#	Modifying user name:	landrgr1
#	Modification time:	28. 01. 2015 13:52

#	Program:	corina 3.48 0006  22.01.2010

@<TRIPOS>MOLECULE
7120051
  35   38    0    0    0
SMALL
NO_CHARGES


@<TRIPOS>ATOM
   1 S1             0.7889    -4.1842     1.0798 S.2     
   2 O2             0.1125     1.2063    -0.9039 O.3     
   3 O3            -2.0638    -0.7820    -0.9181 O.2     
   4 O4            -4.7181    -6.0883     0.0169 O.3     
   5 N5            -0.7019    -2.2864    -0.0035 N.am    
   6 N6             1.5172    -1.7087     0.4876 N.am    
   7 C7             1.3115    -0.4328     0.0045 C.2     
   8 C8             0.0718    -0.0803    -0.4926 C.2     
   9 C9             2.1549     0.7568    -0.1282 C.ar    
  10 C10            1.3339     1.7426    -0.7052 C.ar    
  11 C11           -0.9575    -1.0551    -0.4877 C.2     
  12 C12            0.5129    -2.6064     0.4752 C.2     
  13 C13           -1.7204    -3.2500     0.0015 C.ar    
  14 C14            3.4831     1.0476     0.1842 C.ar    
  15 C15            1.8649     3.0026    -0.9564 C.ar    
  16 C16            3.9841     2.2937    -0.0715 C.ar    
  17 C17           -2.5632    -3.3641     1.0990 C.ar    
  18 C18           -1.8901    -4.0869    -1.0934 C.ar    
  19 C19            3.1794     3.2704    -0.6400 C.ar    
  20 C20           -3.5660    -4.3133     1.1034 C.ar    
  21 C21           -2.8932    -5.0357    -1.0878 C.ar    
  22 C22           -3.7311    -5.1533     0.0116 C.ar    
  23 C23           -4.8307    -6.9193    -1.1402 C.3     
  24 H24            2.3865    -1.9597     0.8371 H       
  25 H25            4.1136     0.2909     0.6272 H       
  26 H26            1.2481     3.7706    -1.3993 H       
  27 H27           -2.4343    -2.7107     1.9492 H       
  28 H28           -1.2378    -3.9955    -1.9493 H       
  29 H29            5.0122     2.5190     0.1706 H       
  30 H30            3.5874     4.2508    -0.8370 H       
  31 H31           -4.2216    -4.4020     1.9569 H       
  32 H32           -3.0253    -5.6867    -1.9394 H       
  33 H33           -3.9028    -7.4736    -1.2811 H       
  34 H34           -5.6553    -7.6193    -1.0059 H       
  35 H35           -5.0198    -6.2987    -2.0161 H       
@<TRIPOS>BOND
   1    1   12 2
   2    2    8 1
   3    2   10 1
   4    3   11 2
   5    4   22 1
   6    4   23 1
   7    5   11 am
   8    5   12 am
   9    5   13 1
  10    6    7 1
  11    6   12 am
  12    6   24 1
  13    7    8 2
  14    7    9 1
  15    8   11 1
  16    9   10 ar
  17    9   14 ar
  18   10   15 ar
  19   13   17 ar
  20   13   18 ar
  21   14   16 ar
  22   14   25 1
  23   15   19 ar
  24   15   26 1
  25   16   19 ar
  26   16   29 1
  27   17   20 ar
  28   17   27 1
  29   18   21 ar
  30   18   28 1
  31   19   30 1
  32   20   22 ar
  33   20   31 1
  34   21   22 ar
  35   21   32 1
  36   23   33 1
  37   23   34 1
  38   23   35 1

#	End of record

#	Name: 7119438
#	Creating user name:	landrgr1
#	Creation time:	28. 01. 2015 13:52

#	Modifying user name:	landrgr1
#	Modification time:	28. 01. 2015 13:52

#	Program:	corina 3.48 0006  22.01.2010

@<TRIPOS>MOLECULE
7119438
  41   42    0    0    0
SMALL
NO_CHARGES


@<TRIPOS>ATOM
   1 S1            -0.0225     1.8057     0.0120 S.3     
   2 S2             2.9918     0.9865    -0.0218 S.3     
   3 O3            -4.1472    -4.5548     0.0172 O.3     
   4 O4             6.5158     8.1205    -0.0147 O.3     
   5 O5            -2.3441     0.2498     0.0258 O.2     
   6 O6            -1.9395    -4.4577    -0.0034 O.2     
   7 N7            -1.6400    -1.8540     0.0078 N.am    
   8 N8             2.2974     3.3110    -0.0016 N.2     
   9 N9             4.2254     2.1551    -0.0269 N.2     
  10 C10            4.3836     4.5849    -0.0148 C.ar    
  11 C11            3.6176     3.3146    -0.0143 C.2     
  12 C12            5.7773     4.5600    -0.0284 C.ar    
  13 C13            3.7112     5.8059    -0.0075 C.ar    
  14 C14           -3.0144    -2.3611     0.0182 C.3     
  15 C15            5.8141     6.9571    -0.0152 C.ar    
  16 C16            6.4866     5.7425    -0.0288 C.ar    
  17 C17            4.4260     6.9851    -0.0079 C.ar    
  18 C18            0.0021    -0.0041     0.0020 C.3     
  19 C19           -1.4117    -0.5257     0.0127 C.2     
  20 C20            1.7084     2.1353    -0.0028 C.2     
  21 C21           -2.9940    -3.8679     0.0099 C.2     
  22 C22           -4.0515    -6.0036     0.0085 C.3     
  23 C23           -5.4572    -6.6076     0.0187 C.3     
  24 C24            5.7605     9.3336    -0.0004 C.3     
  25 H25            6.3010     3.6155    -0.0382 H       
  26 H26            2.6314     5.8283    -0.0019 H       
  27 H27           -3.5246    -2.0095     0.9150 H       
  28 H28           -3.5416    -2.0000    -0.8649 H       
  29 H29            0.5123    -0.3556    -0.8948 H       
  30 H30            0.5293    -0.3651     0.8851 H       
  31 H31            7.5664     5.7238    -0.0393 H       
  32 H32            3.9056     7.9314    -0.0026 H       
  33 H33           -0.8943    -2.4742    -0.0027 H       
  34 H34           -3.5234    -6.3275    -0.8883 H       
  35 H35           -3.5064    -6.3371     0.8915 H       
  36 H36           -5.9854    -6.2837     0.9155 H       
  37 H37           -6.0023    -6.2741    -0.8644 H       
  38 H38           -5.3854    -7.6952     0.0122 H       
  39 H39            6.4408    10.1852    -0.0016 H       
  40 H40            5.1241     9.3758    -0.8843 H       
  41 H41            5.1406     9.3650     0.8956 H       
@<TRIPOS>BOND
   1    1   18 1
   2    1   20 1
   3    2    9 1
   4    2   20 1
   5    3   21 1
   6    3   22 1
   7    4   15 1
   8    4   24 1
   9    5   19 2
  10    6   21 2
  11    7   14 1
  12    7   19 am
  13    7   33 1
  14    8   11 1
  15    8   20 2
  16    9   11 2
  17   10   11 1
  18   10   12 ar
  19   10   13 ar
  20   12   16 ar
  21   12   25 1
  22   13   17 ar
  23   13   26 1
  24   14   21 1
  25   14   27 1
  26   14   28 1
  27   15   16 ar
  28   15   17 ar
  29   16   31 1
  30   17   32 1
  31   18   19 1
  32   18   29 1
  33   18   30 1
  34   22   23 1
  35   22   34 1
  36   22   35 1
  37   23   36 1
  38   23   37 1
  39   23   38 1
  40   24   39 1
  41   24   40 1
  42   24   41 1

#	End of record

#	Name: 7119313
#	Creating user name:	landrgr1
#	Creation time:	28. 01. 2015 13:52

#	Modifying user name:	landrgr1
#	Modification time:	28. 01. 2015 13:52

#	Program:	corina 3.48 0006  22.01.2010

@<TRIPOS>MOLECULE
7119313
  30   31    0    0    0
SMALL
NO_CHARGES


@<TRIPOS>ATOM
   1 S1            -0.0225     1.8057     0.0120 S.3     
   2 S2             2.9918     0.9866    -0.0218 S.3     
   3 O3            -1.6391    -1.8486     0.0078 O.3     
   4 O4            -2.3406     0.2469     0.0257 O.2     
   5 N5             2.2974     3.3109    -0.0027 N.2     
   6 N6             4.2253     2.1552    -0.0282 N.2     
   7 C7             4.3836     4.5851    -0.0177 C.ar    
   8 C8             3.6175     3.3146    -0.0160 C.2     
   9 C9             5.7769     4.5616    -0.0320 C.ar    
  10 C10            3.7125     5.8064    -0.0107 C.ar    
  11 C11            0.0021    -0.0041     0.0020 C.3     
  12 C12            1.7084     2.1353    -0.0028 C.2     
  13 C13            6.4844     5.7466    -0.0334 C.ar    
  14 C14            4.4302     6.9852    -0.0123 C.ar    
  15 C15            5.8131     6.9560    -0.0207 C.ar    
  16 C16           -3.0257    -2.2792     0.0187 C.3     
  17 C17           -1.4117    -0.5257     0.0127 C.2     
  18 C18           -3.0851    -3.8080     0.0111 C.3     
  19 H19            6.3020     3.6180    -0.0415 H       
  20 H20            2.6328     5.8304    -0.0045 H       
  21 H21            0.5123    -0.3556    -0.8948 H       
  22 H22            0.5293    -0.3651     0.8851 H       
  23 H23            7.5642     5.7296    -0.0441 H       
  24 H24            3.9111     7.9323    -0.0069 H       
  25 H25           -3.5165    -1.9010     0.9155 H       
  26 H26           -3.5335    -1.8914    -0.8644 H       
  27 H27            6.3708     7.8809    -0.0218 H       
  28 H28           -2.5942    -4.1862    -0.8857 H       
  29 H29           -2.5772    -4.1957     0.8942 H       
  30 H30           -4.1260    -4.1313     0.0193 H       
@<TRIPOS>BOND
   1    1   11 1
   2    1   12 1
   3    2    6 1
   4    2   12 1
   5    3   16 1
   6    3   17 1
   7    4   17 2
   8    5    8 1
   9    5   12 2
  10    6    8 2
  11    7    8 1
  12    7    9 ar
  13    7   10 ar
  14    9   13 ar
  15    9   19 1
  16   10   14 ar
  17   10   20 1
  18   11   17 1
  19   11   21 1
  20   11   22 1
  21   13   15 ar
  22   13   23 1
  23   14   15 ar
  24   14   24 1
  25   15   27 1
  26   16   18 1
  27   16   25 1
  28   16   26 1
  29   18   28 1
  30   18   29 1
  31   18   30 1

#	End of record

#	Name: 7110105
#	Creating user name:	landrgr1
#	Creation time:	28. 01. 2015 13:52

#	Modifying user name:	landrgr1
#	Modification time:	28. 01. 2015 13:52

#	Program:	corina 3.48 0006  22.01.2010

@<TRIPOS>MOLECULE
7110105
  34   38    0    0    0
SMALL
NO_CHARGES


@<TRIPOS>ATOM
   1 S1            -0.0218     1.7579     0.0117 S.3     
   2 S2             4.9729     4.2400    -0.0245 S.3     
   3 F3             6.4219    -0.4928    -0.0596 F       
   4 O4            -1.7867    -3.1802     0.0055 O.3     
   5 O5             0.8559    -4.0575    -0.0342 O.3     
   6 N6             2.2099     0.5982    -0.0158 N.2     
   7 N7             2.5008     2.9484    -0.0069 N.pl3   
   8 N8             4.5491     1.7606    -0.0318 N.2     
   9 C9            -0.7574    -2.2882    -0.0019 C.ar    
  10 C10            0.5662    -2.7255    -0.0196 C.ar    
  11 C11            0.0021    -0.0041     0.0020 C.ar    
  12 C12            1.3337    -0.4276    -0.0130 C.ar    
  13 C13           -1.0340    -0.9344     0.0074 C.ar    
  14 C14            1.5984    -1.8130    -0.0238 C.ar    
  15 C15           -1.4771    -4.5236    -0.3805 C.3     
  16 C16           -0.1959    -4.9495     0.3491 C.3     
  17 C17            1.7357     1.7958    -0.0049 C.2     
  18 C18            3.8811     2.8621    -0.0204 C.2     
  19 C19            5.8951     1.8395    -0.0443 C.ar    
  20 C20            6.3623     3.1566    -0.0427 C.ar    
  21 C21            6.8418     0.7913    -0.0581 C.ar    
  22 C22            7.7303     3.4196    -0.0542 C.ar    
  23 C23            8.1874     1.0699    -0.0688 C.ar    
  24 C24            8.6361     2.3823    -0.0676 C.ar    
  25 H25           -2.0595    -0.5960     0.0184 H       
  26 H26            2.6205    -2.1619    -0.0367 H       
  27 H27           -2.2970    -5.1849    -0.1002 H       
  28 H28           -1.3189    -4.5694    -1.4579 H       
  29 H29            0.0659    -5.9693     0.0670 H       
  30 H30           -0.3507    -4.8938     1.4266 H       
  31 H31            2.0692     3.8171     0.0012 H       
  32 H32            8.0818     4.4408    -0.0528 H       
  33 H33            8.9017     0.2599    -0.0783 H       
  34 H34            9.6957     2.5907    -0.0771 H       
@<TRIPOS>BOND
   1    1   11 1
   2    1   17 1
   3    2   18 1
   4    2   20 1
   5    3   21 1
   6    4    9 1
   7    4   15 1
   8    5   10 1
   9    5   16 1
  10    6   12 1
  11    6   17 2
  12    7   17 1
  13    7   18 1
  14    7   31 1
  15    8   18 2
  16    8   19 1
  17    9   10 ar
  18    9   13 ar
  19   10   14 ar
  20   11   12 ar
  21   11   13 ar
  22   12   14 ar
  23   13   25 1
  24   14   26 1
  25   15   16 1
  26   15   27 1
  27   15   28 1
  28   16   29 1
  29   16   30 1
  30   19   20 ar
  31   19   21 ar
  32   20   22 ar
  33   21   23 ar
  34   22   24 ar
  35   22   32 1
  36   23   24 ar
  37   23   33 1
  38   24   34 1

#	End of record

#	Name: 7110074
#	Creating user name:	landrgr1
#	Creation time:	28. 01. 2015 13:52

#	Modifying user name:	landrgr1
#	Modification time:	28. 01. 2015 13:52

#	Program:	corina 3.48 0006  22.01.2010

@<TRIPOS>MOLECULE
7110074
  35   39    0    0    0
SMALL
NO_CHARGES


@<TRIPOS>ATOM
   1 S1            -0.0218     1.7579     0.0117 S.3     
   2 S2             4.9729     4.2400    -0.0244 S.3     
   3 O3            -1.5784    -3.3786    -0.0026 O.3     
   4 O4             0.5721    -4.0917    -0.0219 O.3     
   5 O5             9.9728     2.6407    -0.0787 O.3     
   6 N6             2.2099     0.5982    -0.0157 N.2     
   7 N7             2.5008     2.9484    -0.0068 N.pl3   
   8 N8             4.5490     1.7608    -0.0318 N.2     
   9 C9             0.0021    -0.0041     0.0020 C.ar    
  10 C10            1.3337    -0.4276    -0.0125 C.ar    
  11 C11           -0.7582    -2.2862    -0.0038 C.ar    
  12 C12            0.5681    -2.7245    -0.0163 C.ar    
  13 C13           -1.0349    -0.9341     0.0059 C.ar    
  14 C14            1.5995    -1.8132    -0.0214 C.ar    
  15 C15            1.7357     1.7958    -0.0049 C.2     
  16 C16            6.3626     3.1569    -0.0427 C.ar    
  17 C17            5.8958     1.8395    -0.0443 C.ar    
  18 C18           -0.7535    -4.4791    -0.4279 C.3     
  19 C19            3.8813     2.8621    -0.0204 C.2     
  20 C20            7.7302     3.4213    -0.0541 C.ar    
  21 C21            6.8403     0.7914    -0.0589 C.ar    
  22 C22            8.6381     2.3805    -0.0671 C.ar    
  23 C23            8.1842     1.0651    -0.0707 C.ar    
  24 C24           10.8531     1.5152    -0.0918 C.3     
  25 H25           -2.0604    -0.5955     0.0168 H       
  26 H26            2.6216    -2.1619    -0.0325 H       
  27 H27           -1.0540    -5.3990     0.0738 H       
  28 H28           -0.8028    -4.5986    -1.5102 H       
  29 H29            2.0692     3.8170     0.0013 H       
  30 H30            8.0814     4.4426    -0.0531 H       
  31 H31            6.5024    -0.2344    -0.0604 H       
  32 H32            8.8961     0.2530    -0.0811 H       
  33 H33           11.8864     1.8621    -0.1001 H       
  34 H34           10.6807     0.9086     0.7973 H       
  35 H35           10.6638     0.9162    -0.9826 H       
@<TRIPOS>BOND
   1    1    9 1
   2    1   15 1
   3    2   16 1
   4    2   19 1
   5    3   11 1
   6    3   18 1
   7    4   12 1
   8    4   18 1
   9    5   22 1
  10    5   24 1
  11    6   10 1
  12    6   15 2
  13    7   15 1
  14    7   19 1
  15    7   29 1
  16    8   17 1
  17    8   19 2
  18    9   10 ar
  19    9   13 ar
  20   10   14 ar
  21   11   12 ar
  22   11   13 ar
  23   12   14 ar
  24   13   25 1
  25   14   26 1
  26   16   17 ar
  27   16   20 ar
  28   17   21 ar
  29   18   27 1
  30   18   28 1
  31   20   22 ar
  32   20   30 1
  33   21   23 ar
  34   21   31 1
  35   22   23 ar
  36   23   32 1
  37   24   33 1
  38   24   34 1
  39   24   35 1

#	End of record

#	Name: 7109977
#	Creating user name:	landrgr1
#	Creation time:	28. 01. 2015 13:52

#	Modifying user name:	landrgr1
#	Modification time:	28. 01. 2015 13:52

#	Program:	corina 3.48 0006  22.01.2010

@<TRIPOS>MOLECULE
7109977
  28   31    0    0    0
SMALL
NO_CHARGES


@<TRIPOS>ATOM
   1 S1            -0.0218     1.7577     0.0117 S.3     
   2 S2             4.9732     4.2388    -0.0227 S.3     
   3 F3             2.8739    -2.2563    -0.0371 F       
   4 F4             6.4216    -0.4941    -0.0624 F       
   5 N5             2.5009     2.9476    -0.0060 N.pl3   
   6 N6             2.2098     0.5977    -0.0158 N.2     
   7 N7             4.5490     1.7596    -0.0319 N.2     
   8 C8             1.3339    -0.4274    -0.0130 C.ar    
   9 C9             5.8950     1.8382    -0.0444 C.ar    
  10 C10            0.0021    -0.0041     0.0020 C.ar    
  11 C11            6.3625     3.1552    -0.0417 C.ar    
  12 C12            1.7357     1.7955    -0.0049 C.2     
  13 C13            3.8812     2.8611    -0.0196 C.2     
  14 C14            1.5971    -1.8151    -0.0225 C.ar    
  15 C15            6.8416     0.7900    -0.0595 C.ar    
  16 C16           -1.0340    -0.9353     0.0069 C.ar    
  17 C17            7.7305     3.4182    -0.0534 C.ar    
  18 C18            0.5621    -2.7191    -0.0175 C.ar    
  19 C19            8.1872     1.0684    -0.0717 C.ar    
  20 C20           -0.7547    -2.2838    -0.0025 C.ar    
  21 C21            8.6361     2.3807    -0.0681 C.ar    
  22 H22            2.0694     3.8164     0.0028 H       
  23 H23           -2.0601    -0.5985     0.0185 H       
  24 H24            8.0822     4.4393    -0.0513 H       
  25 H25            0.7760    -3.7777    -0.0255 H       
  26 H26            8.9014     0.2584    -0.0832 H       
  27 H27           -1.5609    -3.0024     0.0020 H       
  28 H28            9.6958     2.5890    -0.0778 H       
@<TRIPOS>BOND
   1    1   10 1
   2    1   12 1
   3    2   11 1
   4    2   13 1
   5    3   14 1
   6    4   15 1
   7    5   12 1
   8    5   13 1
   9    5   22 1
  10    6    8 1
  11    6   12 2
  12    7    9 1
  13    7   13 2
  14    8   10 ar
  15    8   14 ar
  16    9   11 ar
  17    9   15 ar
  18   10   16 ar
  19   11   17 ar
  20   14   18 ar
  21   15   19 ar
  22   16   20 ar
  23   16   23 1
  24   17   21 ar
  25   17   24 1
  26   18   20 ar
  27   18   25 1
  28   19   21 ar
  29   19   26 1
  30   20   27 1
  31   21   28 1

#	End of record

#	Name: 7105772
#	Creating user name:	landrgr1
#	Creation time:	28. 01. 2015 13:52

#	Modifying user name:	landrgr1
#	Modification time:	28. 01. 2015 13:52

#	Program:	corina 3.48 0006  22.01.2010

@<TRIPOS>MOLECULE
7105772
  39   42    0    0    0
SMALL
NO_CHARGES


@<TRIPOS>ATOM
   1 S1            -0.6019     1.9110    -0.3949 S.3     
   2 S2             4.2265     2.0703    -0.3137 S.3     
   3 O3             5.7259     6.7836    -0.6650 O.3     
   4 O4            -3.1578    -2.2032    -1.4088 O.2     
   5 N5             1.7681     3.3798    -0.4679 N.pl3   
   6 N6             1.7474     1.0199    -0.2764 N.2     
   7 N7             3.8291     4.5449    -0.5219 N.2     
   8 N8            -1.7869    -3.2268     0.0038 N.am    
   9 C9            -0.3773     0.1697    -0.2483 C.ar    
  10 C10            0.9944    -0.0966    -0.1998 C.ar    
  11 C11            5.1742     4.4539    -0.4878 C.ar    
  12 C12            5.6272     3.1378    -0.3722 C.ar    
  13 C13            1.1396     2.1508    -0.3806 C.2     
  14 C14           -0.8606    -2.1779    -0.0646 C.ar    
  15 C15           -1.2996    -0.8714    -0.1808 C.ar    
  16 C16            3.1495     3.4534    -0.4471 C.2     
  17 C17            1.4153    -1.4384    -0.0820 C.ar    
  18 C18            6.1337     5.4916    -0.5523 C.ar    
  19 C19            0.5049    -2.4482    -0.0176 C.ar    
  20 C20            6.9927     2.8627    -0.3232 C.ar    
  21 C21            7.4783     5.1998    -0.5025 C.ar    
  22 C22            7.9106     3.8872    -0.3883 C.ar    
  23 C23           -2.9517    -3.1420    -0.6689 C.2     
  24 C24            6.7456     7.7829    -0.7251 C.3     
  25 C25           -3.9980    -4.2136    -0.5019 C.3     
  26 H26           -2.3578    -0.6587    -0.2187 H       
  27 H27            2.4703    -1.6663    -0.0428 H       
  28 H28            1.2404     4.1901    -0.5436 H       
  29 H29            0.8448    -3.4693     0.0735 H       
  30 H30            7.3324     1.8414    -0.2334 H       
  31 H31            8.2022     5.9997    -0.5537 H       
  32 H32            8.9675     3.6683    -0.3499 H       
  33 H33           -1.5900    -4.0139     0.5352 H       
  34 H34            7.3826     7.6003    -1.5906 H       
  35 H35            6.2852     8.7669    -0.8140 H       
  36 H36            7.3467     7.7437     0.1833 H       
  37 H37           -4.8639    -3.9755    -1.1197 H       
  38 H38           -3.5859    -5.1748    -0.8091 H       
  39 H39           -4.3011    -4.2657     0.5438 H       
@<TRIPOS>BOND
   1    1    9 1
   2    1   13 1
   3    2   12 1
   4    2   16 1
   5    3   18 1
   6    3   24 1
   7    4   23 2
   8    5   13 1
   9    5   16 1
  10    5   28 1
  11    6   10 1
  12    6   13 2
  13    7   11 1
  14    7   16 2
  15    8   14 1
  16    8   23 am
  17    8   33 1
  18    9   10 ar
  19    9   15 ar
  20   10   17 ar
  21   11   12 ar
  22   11   18 ar
  23   12   20 ar
  24   14   15 ar
  25   14   19 ar
  26   15   26 1
  27   17   19 ar
  28   17   27 1
  29   18   21 ar
  30   19   29 1
  31   20   22 ar
  32   20   30 1
  33   21   22 ar
  34   21   31 1
  35   22   32 1
  36   23   25 1
  37   24   34 1
  38   24   35 1
  39   24   36 1
  40   25   37 1
  41   25   38 1
  42   25   39 1

#	End of record

#	Name: 7105569
#	Creating user name:	landrgr1
#	Creation time:	28. 01. 2015 13:52

#	Modifying user name:	landrgr1
#	Modification time:	28. 01. 2015 13:52

#	Program:	corina 3.48 0006  22.01.2010

@<TRIPOS>MOLECULE
7105569
  26   27    0    0    0
SMALL
NO_CHARGES


@<TRIPOS>ATOM
   1 S1            -0.0218     1.7577     0.0117 S.3     
   2 F2             2.8735    -2.2563    -0.0375 F       
   3 O3             4.1033     5.0674    -0.0111 O.2     
   4 N4             2.2101     0.5977    -0.0158 N.2     
   5 N5             2.4993     2.9459    -0.0064 N.pl3   
   6 N6             3.8975     2.8584    -0.0202 N.am    
   7 C7             1.3336    -0.4275    -0.0130 C.ar    
   8 C8             0.0021    -0.0041     0.0020 C.ar    
   9 C9             1.7357     1.7957    -0.0049 C.2     
  10 C10            1.5967    -1.8151    -0.0229 C.ar    
  11 C11           -1.0341    -0.9350     0.0069 C.ar    
  12 C12            6.1469     3.8872    -0.0365 C.3     
  13 C13            0.5616    -2.7191    -0.0174 C.ar    
  14 C14           -0.7550    -2.2837    -0.0025 C.ar    
  15 C15            4.6429     3.9813    -0.0217 C.2     
  16 C16            6.7460     5.2951    -0.0352 C.3     
  17 H17           -2.0601    -0.5980     0.0185 H       
  18 H18            6.4859     3.3473     0.8476 H       
  19 H19            6.4689     3.3562    -0.9323 H       
  20 H20            2.0677     3.8145     0.0021 H       
  21 H21            0.7754    -3.7777    -0.0252 H       
  22 H22           -1.5614    -3.0021     0.0020 H       
  23 H23            4.3290     1.9898    -0.0286 H       
  24 H24            7.8338     5.2271    -0.0459 H       
  25 H25            6.4069     5.8350    -0.9193 H       
  26 H26            6.4239     5.8261     0.8606 H       
@<TRIPOS>BOND
   1    1    8 1
   2    1    9 1
   3    2   10 1
   4    3   15 2
   5    4    7 1
   6    4    9 2
   7    5    6 1
   8    5    9 1
   9    5   20 1
  10    6   15 am
  11    6   23 1
  12    7    8 ar
  13    7   10 ar
  14    8   11 ar
  15   10   13 ar
  16   11   14 ar
  17   11   17 1
  18   12   15 1
  19   12   16 1
  20   12   18 1
  21   12   19 1
  22   13   14 ar
  23   13   21 1
  24   14   22 1
  25   16   24 1
  26   16   25 1
  27   16   26 1

#	End of record

#	Name: 7105555
#	Creating user name:	landrgr1
#	Creation time:	28. 01. 2015 13:52

#	Modifying user name:	landrgr1
#	Modification time:	28. 01. 2015 13:52

#	Program:	corina 3.48 0006  22.01.2010

@<TRIPOS>MOLECULE
7105555
  38   40    0    0    0
SMALL
NO_CHARGES


@<TRIPOS>ATOM
   1 S1            -0.0218     1.7578     0.0117 S.3     
   2 O2             2.8805    -2.2620    -0.0380 O.3     
   3 O3             2.9463     7.6993     0.0162 O.3     
   4 O4             3.8324     5.2479    -0.0063 O.2     
   5 N5             2.2098     0.5979    -0.0158 N.2     
   6 N6             2.4996     2.9462    -0.0060 N.pl3   
   7 N7             1.8765     4.2009     0.0072 N.am    
   8 C8             1.3328    -0.4273    -0.0130 C.ar    
   9 C9             0.0021    -0.0041     0.0020 C.ar    
  10 C10            1.5959    -1.8171    -0.0229 C.ar    
  11 C11            1.7357     1.7957    -0.0049 C.2     
  12 C12           -1.0350    -0.9352     0.0069 C.ar    
  13 C13            0.5579    -2.7217    -0.0179 C.ar    
  14 C14           -0.7578    -2.2841    -0.0030 C.ar    
  15 C15            1.9516     6.6733     0.0203 C.3     
  16 C16            2.6220     5.3237     0.0061 C.2     
  17 C17            2.5065     8.9851     0.0278 C.ar    
  18 C18            3.4177    10.0312     0.0247 C.ar    
  19 C19            1.1455     9.2538     0.0371 C.ar    
  20 C20            3.0768    -3.6774    -0.0475 C.3     
  21 C21            2.9681    11.3374     0.0365 C.ar    
  22 C22            0.7009    10.5617     0.0489 C.ar    
  23 C23            1.6112    11.6025     0.0519 C.ar    
  24 H24           -2.0607    -0.5973     0.0189 H       
  25 H25            0.7702    -3.7806    -0.0256 H       
  26 H26           -1.5653    -3.0013     0.0012 H       
  27 H27            3.4677     2.8856    -0.0159 H       
  28 H28            1.3387     6.7651     0.9170 H       
  29 H29            1.3210     6.7751    -0.8629 H       
  30 H30            0.9084     4.2615     0.0172 H       
  31 H31            4.4777     9.8246     0.0133 H       
  32 H32            0.4341     8.4412     0.0347 H       
  33 H33            2.6089    -4.1032    -0.9351 H       
  34 H34            4.1445    -3.8961    -0.0592 H       
  35 H35            2.6266    -4.1126     0.8447 H       
  36 H36            3.6770    12.1521     0.0340 H       
  37 H37           -0.3585    10.7715     0.0561 H       
  38 H38            1.2616    12.6244     0.0619 H       
@<TRIPOS>BOND
   1    1    9 1
   2    1   11 1
   3    2   10 1
   4    2   20 1
   5    3   15 1
   6    3   17 1
   7    4   16 2
   8    5    8 1
   9    5   11 2
  10    6    7 1
  11    6   11 1
  12    6   27 1
  13    7   16 am
  14    7   30 1
  15    8    9 ar
  16    8   10 ar
  17    9   12 ar
  18   10   13 ar
  19   12   14 ar
  20   12   24 1
  21   13   14 ar
  22   13   25 1
  23   14   26 1
  24   15   16 1
  25   15   28 1
  26   15   29 1
  27   17   18 ar
  28   17   19 ar
  29   18   21 ar
  30   18   31 1
  31   19   22 ar
  32   19   32 1
  33   20   33 1
  34   20   34 1
  35   20   35 1
  36   21   23 ar
  37   21   36 1
  38   22   23 ar
  39   22   37 1
  40   23   38 1

#	End of record

#	Name: 7086350
#	Creating user name:	landrgr1
#	Creation time:	28. 01. 2015 13:52

#	Modifying user name:	landrgr1
#	Modification time:	28. 01. 2015 13:52

#	Program:	corina 3.48 0006  22.01.2010

@<TRIPOS>MOLECULE
7086350
  34   36    0    0    0
SMALL
NO_CHARGES


@<TRIPOS>ATOM
   1 S1            -0.1977     2.2422    -0.0040 S.3     
   2 O2            -2.8664    -2.1449    -1.0951 O.3     
   3 O3             4.4774     4.8956     0.0709 O.3     
   4 N4             2.4996     2.9469    -0.0053 N.pl3   
   5 N5             1.7605     0.7766    -0.5919 N.2     
   6 C6            -0.5165     0.5742    -0.4738 C.ar    
   7 C7             0.7039    -0.0470    -0.7535 C.ar    
   8 C8             1.5288     1.9867    -0.2149 C.2     
   9 C9             3.8542     2.5964    -0.0587 C.ar    
  10 C10           -1.7111    -0.1324    -0.5900 C.ar    
  11 C11            0.6938    -1.3998    -1.1540 C.ar    
  12 C12           -1.6989    -1.4565    -0.9832 C.ar    
  13 C13            4.8342     3.5864    -0.0190 C.ar    
  14 C14           -0.4896    -2.0846    -1.2645 C.ar    
  15 C15            4.2244     1.2625    -0.1455 C.ar    
  16 C16            6.1724     3.2338    -0.0716 C.ar    
  17 C17            5.5625     0.9189    -0.1976 C.ar    
  18 C18            6.5338     1.9019    -0.1634 C.ar    
  19 C19           -2.7775    -3.5104    -1.5066 C.3     
  20 C20            5.5354     5.8554     0.1070 C.3     
  21 H21            2.2428     3.8640     0.1789 H       
  22 H22           -2.6493     0.3561    -0.3717 H       
  23 H23            1.6249    -1.9000    -1.3756 H       
  24 H24           -0.4827    -3.1197    -1.5725 H       
  25 H25            3.4676     0.4925    -0.1720 H       
  26 H26            6.9339     3.9990    -0.0414 H       
  27 H27            5.8497    -0.1200    -0.2652 H       
  28 H28            7.5779     1.6288    -0.2048 H       
  29 H29            6.1696     5.6647     0.9727 H       
  30 H30            6.1296     5.7756    -0.8034 H       
  31 H31            5.1141     6.8581     0.1791 H       
  32 H32           -3.7776    -3.9410    -1.5553 H       
  33 H33           -2.3106    -3.5639    -2.4901 H       
  34 H34           -2.1764    -4.0680    -0.7883 H       
@<TRIPOS>BOND
   1    1    6 1
   2    1    8 1
   3    2   12 1
   4    2   19 1
   5    3   13 1
   6    3   20 1
   7    4    8 1
   8    4    9 1
   9    4   21 1
  10    5    7 1
  11    5    8 2
  12    6    7 ar
  13    6   10 ar
  14    7   11 ar
  15    9   13 ar
  16    9   15 ar
  17   10   12 ar
  18   10   22 1
  19   11   14 ar
  20   11   23 1
  21   12   14 ar
  22   13   16 ar
  23   14   24 1
  24   15   17 ar
  25   15   25 1
  26   16   18 ar
  27   16   26 1
  28   17   18 ar
  29   17   27 1
  30   18   28 1
  31   19   32 1
  32   19   33 1
  33   19   34 1
  34   20   29 1
  35   20   30 1
  36   20   31 1

#	End of record

#	Name: 7086349
#	Creating user name:	landrgr1
#	Creation time:	28. 01. 2015 13:52

#	Modifying user name:	landrgr1
#	Modification time:	28. 01. 2015 13:52

#	Program:	corina 3.48 0006  22.01.2010

@<TRIPOS>MOLECULE
7086349
  34   36    0    0    0
SMALL
NO_CHARGES


@<TRIPOS>ATOM
   1 S1             0.1031     1.5227    -0.0123 S.3     
   2 O2            -1.1889    -3.5240    -0.6607 O.3     
   3 O3             6.6062     5.2222    -0.9616 O.3     
   4 N4             2.4998     2.9473    -0.0060 N.pl3   
   5 N5             2.4213     0.6070    -0.3511 N.2     
   6 C6             0.2835    -0.2083    -0.2882 C.ar    
   7 C7             1.6428    -0.4907    -0.4486 C.ar    
   8 C8             1.8439     1.7374    -0.1310 C.2     
   9 C9             3.8971     2.9870     0.0041 C.ar    
  10 C10           -0.6626    -1.2279    -0.3599 C.ar    
  11 C11            2.0288    -1.8274    -0.6831 C.ar    
  12 C12           -0.2635    -2.5300    -0.5907 C.ar    
  13 C13            1.0873    -2.8225    -0.7511 C.ar    
  14 C14            4.5642     4.0992    -0.4899 C.ar    
  15 C15            4.6199     1.9153     0.5141 C.ar    
  16 C16            5.9499     4.1348    -0.4782 C.ar    
  17 C17            6.0004     1.9549     0.5244 C.ar    
  18 C18            6.6665     3.0592     0.0271 C.ar    
  19 C19           -0.7037    -4.8463    -0.9020 C.3     
  20 C20            8.0342     5.1903    -0.9183 C.3     
  21 H21           -1.7108    -1.0000    -0.2343 H       
  22 H22            1.9907     3.7690     0.0747 H       
  23 H23            3.0738    -2.0689    -0.8105 H       
  24 H24            1.3969    -3.8413    -0.9315 H       
  25 H25            4.0049     4.9353    -0.8831 H       
  26 H26            4.1019     1.0511     0.9030 H       
  27 H27            6.5606     1.1214     0.9218 H       
  28 H28            7.7461     3.0869     0.0358 H       
  29 H29           -1.5430    -5.5411    -0.9343 H       
  30 H30           -0.1748    -4.8710    -1.8547 H       
  31 H31           -0.0232    -5.1354    -0.1011 H       
  32 H32            8.4310     6.1167    -1.3334 H       
  33 H33            8.3640     5.0847     0.1152 H       
  34 H34            8.3967     4.3453    -1.5035 H       
@<TRIPOS>BOND
   1    1    6 1
   2    1    8 1
   3    2   12 1
   4    2   19 1
   5    3   16 1
   6    3   20 1
   7    4    8 1
   8    4    9 1
   9    4   22 1
  10    5    7 1
  11    5    8 2
  12    6    7 ar
  13    6   10 ar
  14    7   11 ar
  15    9   14 ar
  16    9   15 ar
  17   10   12 ar
  18   10   21 1
  19   11   13 ar
  20   11   23 1
  21   12   13 ar
  22   13   24 1
  23   14   16 ar
  24   14   25 1
  25   15   17 ar
  26   15   26 1
  27   16   18 ar
  28   17   18 ar
  29   17   27 1
  30   18   28 1
  31   19   29 1
  32   19   30 1
  33   19   31 1
  34   20   32 1
  35   20   33 1
  36   20   34 1

#	End of record

#	Name: 7025556
#	Creating user name:	landrgr1
#	Creation time:	28. 01. 2015 13:52

#	Modifying user name:	landrgr1
#	Modification time:	28. 01. 2015 13:52

#	Program:	corina 3.48 0006  22.01.2010

@<TRIPOS>MOLECULE
7025556
  38   41    0    0    0
SMALL
NO_CHARGES


@<TRIPOS>ATOM
   1 N1            -0.0179     1.4653     0.0101 N.3     
   2 N2             2.0995     0.0476    -1.2596 N.3     
   3 N3            -0.9318     3.2644     1.3729 N.pl3   
   4 N4            -1.3186     1.1997     1.9924 N.2     
   5 N5             2.2423    -1.2706    -3.1967 N.ar    
   6 C6             0.0021    -0.0041     0.0020 C.3     
   7 C7             1.3479     2.0078    -0.0000 C.3     
   8 C8             0.7337    -0.4948    -1.2495 C.3     
   9 C9             2.0796     1.5170    -1.2516 C.3     
  10 C10           -0.7317     1.9440     1.0885 C.2     
  11 C11            2.8191    -0.4348    -2.3467 C.ar    
  12 C12           -1.6926     3.3248     2.5291 C.ar    
  13 C13           -1.9301     1.9937     2.9104 C.ar    
  14 C14            4.1384    -0.0351    -2.5322 C.ar    
  15 C15           -2.2039     4.3645     3.2902 C.ar    
  16 C16           -2.6815     1.7308     4.0579 C.ar    
  17 C17            4.8426    -0.5226    -3.6186 C.ar    
  18 C18           -2.9451     4.0880     4.4210 C.ar    
  19 C19           -3.1812     2.7760     4.8027 C.ar    
  20 C20            2.8896    -1.7513    -4.2411 C.ar    
  21 C21            4.2013    -1.3967    -4.4859 C.ar    
  22 H22            0.5192    -0.3656     0.8908 H       
  23 H23           -1.0204    -0.3816    -0.0030 H       
  24 H24            1.3066     3.0970    -0.0066 H       
  25 H25            1.8803     1.6690     0.8887 H       
  26 H26            0.2013    -0.1561    -2.1383 H       
  27 H27            0.7751    -1.5840    -1.2430 H       
  28 H28            3.1021     1.8946    -1.2465 H       
  29 H29            1.5625     1.8786    -2.1404 H       
  30 H30           -0.5997     4.0195     0.8628 H       
  31 H31            4.6064     0.6469    -1.8378 H       
  32 H32           -2.0222     5.3885     2.9991 H       
  33 H33           -2.8705     0.7113     4.3601 H       
  34 H34            5.8682    -0.2296    -3.7884 H       
  35 H35           -3.3426     4.8989     5.0134 H       
  36 H36           -3.7625     2.5723     5.6898 H       
  37 H37            2.3870    -2.4313    -4.9130 H       
  38 H38            4.7230    -1.7950    -5.3435 H       
@<TRIPOS>BOND
   1    1    6 1
   2    1    7 1
   3    1   10 1
   4    2    8 1
   5    2    9 1
   6    2   11 1
   7    3   10 1
   8    3   12 1
   9    3   30 1
  10    4   10 2
  11    4   13 1
  12    5   11 ar
  13    5   20 ar
  14    6    8 1
  15    6   22 1
  16    6   23 1
  17    7    9 1
  18    7   24 1
  19    7   25 1
  20    8   26 1
  21    8   27 1
  22    9   28 1
  23    9   29 1
  24   11   14 ar
  25   12   13 ar
  26   12   15 ar
  27   13   16 ar
  28   14   17 ar
  29   14   31 1
  30   15   18 ar
  31   15   32 1
  32   16   19 ar
  33   16   33 1
  34   17   21 ar
  35   17   34 1
  36   18   19 ar
  37   18   35 1
  38   19   36 1
  39   20   21 ar
  40   20   37 1
  41   21   38 1

#	End of record

#	Name: 6917329
#	Creating user name:	landrgr1
#	Creation time:	28. 01. 2015 13:52

#	Modifying user name:	landrgr1
#	Modification time:	28. 01. 2015 13:52

#	Program:	corina 3.48 0006  22.01.2010

@<TRIPOS>MOLECULE
6917329
  84   90    0    0    0
SMALL
NO_CHARGES


@<TRIPOS>ATOM
   1 O1             6.9185    -2.1631     1.9094 O.2     
   2 O2             1.8526    -1.0375     1.7897 O.2     
   3 O3            -2.2055    -2.6469     1.0510 O.3     
   4 O4            -0.1512     1.1451    -0.9722 O.3     
   5 O5            -2.3859    -0.0825     0.0661 O.3     
   6 N6             5.2710    -1.0420     2.7941 N.am    
   7 N7             3.5022    -2.1560     0.9041 N.am    
   8 N8             2.5180    -3.0160    -2.5898 N.pl3   
   9 C9             3.8616    -0.6728     2.8871 C.3     
  10 C10            6.2078    -0.4474     3.7664 C.3     
  11 C11            4.9208    -2.4854     0.7753 C.3     
  12 C12            6.0697     1.0769     3.7017 C.3     
  13 C13            3.7350     0.8519     2.8315 C.3     
  14 C14            4.6078     1.4675     3.9287 C.3     
  15 C15            5.7406    -1.8774     1.8653 C.2     
  16 C16            2.5528    -2.8060    -0.0239 C.3     
  17 C17            3.0341    -1.3090     1.8230 C.2     
  18 C18            5.4310    -1.9938    -0.5871 C.3     
  19 C19            3.1532    -2.7349    -1.4094 C.2     
  20 C20            4.4329    -2.3761    -1.6496 C.2     
  21 C21            5.8719    -0.9288     5.1544 C.ar    
  22 C22            6.5220     1.5719     2.3265 C.3     
  23 C23            1.2334    -2.0782     0.0005 C.ar    
  24 C24            4.6264    -2.4331    -3.0845 C.ar    
  25 C25            3.3831    -2.8430    -3.6317 C.ar    
  26 C26            5.3040    -2.1763     5.3348 C.ar    
  27 C27            6.1367    -0.1254     6.2474 C.ar    
  28 C28            1.1460    -0.7927    -0.5000 C.ar    
  29 C29            0.1127    -2.7001     0.5181 C.ar    
  30 C30            5.7291    -2.1722    -3.9029 C.ar    
  31 C31            4.9959    -2.6179     6.6077 C.ar    
  32 C32            3.2306    -2.9965    -5.0077 C.ar    
  33 C33            5.8286    -0.5671     7.5208 C.ar    
  34 C34            5.2560    -1.8121     7.7007 C.ar    
  35 C35           -1.1033    -2.0341     0.5420 C.ar    
  36 C36           -0.0663    -0.1198    -0.4799 C.ar    
  37 C37            5.5495    -2.3313    -5.2553 C.ar    
  38 C38            4.3384    -2.7313    -5.7947 C.ar    
  39 C39           -1.1943    -0.7395     0.0445 C.ar    
  40 C40            4.3760    -3.9773     6.8043 C.3     
  41 C41            5.4640    -5.0043     6.9842 C.2     
  42 C42           -2.0383    -3.9776     1.5442 C.3     
  43 C43            1.0483     1.7197    -1.4950 C.3     
  44 C44           -2.6779     0.6935     1.2300 C.3     
  45 C45            5.4684    -5.7753     8.0432 C.2     
  46 H46            3.4824    -1.0118     3.8512 H       
  47 H47            7.2288    -0.7343     3.5150 H       
  48 H48            5.0354    -3.5688     0.8109 H       
  49 H49            6.6911     1.5310     4.4735 H       
  50 H50            4.0679     1.2099     1.8573 H       
  51 H51            2.6951     1.1373     2.9900 H       
  52 H52            4.2808     1.1001     4.9014 H       
  53 H53            4.5137     2.5531     3.9009 H       
  54 H54            2.4078    -3.8473     0.2639 H       
  55 H55            5.5436    -0.9099    -0.5651 H       
  56 H56            6.3926    -2.4580    -0.8058 H       
  57 H57            5.9010     1.1176     1.5544 H       
  58 H58            6.4238     2.6564     2.2803 H       
  59 H59            7.5636     1.2942     2.1649 H       
  60 H60            1.5929    -3.2955    -2.6730 H       
  61 H61            5.1008    -2.8058     4.4810 H       
  62 H62            6.5847     0.8472     6.1069 H       
  63 H63            2.0231    -0.3117    -0.9070 H       
  64 H64            0.1841    -3.7062     0.9042 H       
  65 H65            6.6775    -1.8599    -3.4913 H       
  66 H66            2.2916    -3.3084    -5.4407 H       
  67 H67            6.0358     0.0605     8.3749 H       
  68 H68            5.0149    -2.1570     8.6954 H       
  69 H69            6.3794    -2.1387    -5.9191 H       
  70 H70            4.2551    -2.8399    -6.8660 H       
  71 H71            3.7405    -3.9623     7.6898 H       
  72 H72            3.7760    -4.2328     5.9309 H       
  73 H73            6.2402    -5.1047     6.2399 H       
  74 H74           -1.3049    -3.9767     2.3507 H       
  75 H75           -2.9918    -4.3481     1.9207 H       
  76 H76           -1.6905    -4.6231     0.7376 H       
  77 H77            1.8035     1.7609    -0.7101 H       
  78 H78            1.4145     1.1084    -2.3198 H       
  79 H79            0.8417     2.7280    -1.8538 H       
  80 H80           -3.6550     1.1633     1.1177 H       
  81 H81           -2.6849     0.0454     2.1064 H       
  82 H82           -1.9165     1.4636     1.3537 H       
  83 H83            6.2482    -6.5113     8.1721 H       
  84 H84            4.6923    -5.6749     8.7875 H       
@<TRIPOS>BOND
   1    1   15 2
   2    2   17 2
   3    3   35 1
   4    3   42 1
   5    4   36 1
   6    4   43 1
   7    5   39 1
   8    5   44 1
   9    6    9 1
  10    6   10 1
  11    6   15 am
  12    7   11 1
  13    7   16 1
  14    7   17 am
  15    8   19 1
  16    8   25 1
  17    8   60 1
  18    9   13 1
  19    9   17 1
  20    9   46 1
  21   10   12 1
  22   10   21 1
  23   10   47 1
  24   11   15 1
  25   11   18 1
  26   11   48 1
  27   12   14 1
  28   12   22 1
  29   12   49 1
  30   13   14 1
  31   13   50 1
  32   13   51 1
  33   14   52 1
  34   14   53 1
  35   16   19 1
  36   16   23 1
  37   16   54 1
  38   18   20 1
  39   18   55 1
  40   18   56 1
  41   19   20 2
  42   20   24 1
  43   21   26 ar
  44   21   27 ar
  45   22   57 1
  46   22   58 1
  47   22   59 1
  48   23   28 ar
  49   23   29 ar
  50   24   25 ar
  51   24   30 ar
  52   25   32 ar
  53   26   31 ar
  54   26   61 1
  55   27   33 ar
  56   27   62 1
  57   28   36 ar
  58   28   63 1
  59   29   35 ar
  60   29   64 1
  61   30   37 ar
  62   30   65 1
  63   31   34 ar
  64   31   40 1
  65   32   38 ar
  66   32   66 1
  67   33   34 ar
  68   33   67 1
  69   34   68 1
  70   35   39 ar
  71   36   39 ar
  72   37   38 ar
  73   37   69 1
  74   38   70 1
  75   40   41 1
  76   40   71 1
  77   40   72 1
  78   41   45 2
  79   41   73 1
  80   42   74 1
  81   42   75 1
  82   42   76 1
  83   43   77 1
  84   43   78 1
  85   43   79 1
  86   44   80 1
  87   44   81 1
  88   44   82 1
  89   45   83 1
  90   45   84 1

#	End of record

#	Name: 6917325
#	Creating user name:	landrgr1
#	Creation time:	28. 01. 2015 13:52

#	Modifying user name:	landrgr1
#	Modification time:	28. 01. 2015 13:52

#	Program:	corina 3.48 0006  22.01.2010

@<TRIPOS>MOLECULE
6917325
  94  102    0    0    0
SMALL
NO_CHARGES


@<TRIPOS>ATOM
   1 O1             1.6816    -1.4312     2.0095 O.2     
   2 O2             6.6925    -2.6893     2.4570 O.2     
   3 O3            -2.3024    -2.9454     0.7712 O.3     
   4 O4             9.8959    -3.6896     5.3646 O.3     
   5 O5            -0.1217     1.0440    -0.6510 O.3     
   6 O6             9.9830    -0.3743     1.9449 O.3     
   7 O7            -2.4228    -0.2876     0.0638 O.3     
   8 O8            11.2655    -2.3239     3.4055 O.3     
   9 N9             3.3987    -2.4479     1.1323 N.am    
  10 N10            5.0147    -1.5461     3.2508 N.am    
  11 N11            2.7027    -2.8873    -2.4990 N.pl3   
  12 N12            6.4178     1.1733     5.3724 N.pl3   
  13 C13            4.8184    -2.7988     1.0923 C.3     
  14 C14            3.6416    -1.0443     3.1910 C.3     
  15 C15            2.5273    -2.9918     0.0687 C.3     
  16 C16            5.8415    -1.1456     4.4097 C.3     
  17 C17            5.4510    -2.1696    -0.1577 C.3     
  18 C18            3.6773     0.4810     3.0139 C.3     
  19 C19            2.8708    -1.6617     2.0703 C.2     
  20 C20            5.5431    -2.3307     2.3115 C.2     
  21 C21            3.2406    -2.7646    -1.2457 C.2     
  22 C22            5.6614     0.3462     4.5856 C.2     
  23 C23            4.5381    -2.4001    -1.3350 C.2     
  24 C24            4.6986     1.0582     3.9607 C.2     
  25 C25            1.2049    -2.2692     0.0677 C.ar    
  26 C26            7.2905    -1.4606     4.1412 C.ar    
  27 C27            4.8468    -2.2769    -2.7455 C.ar    
  28 C28            4.8569     2.4379     4.3750 C.ar    
  29 C29            3.6502    -2.5956    -3.4380 C.ar    
  30 C30            5.9599     2.4553     5.2672 C.ar    
  31 C31            6.0136    -1.9307    -3.4328 C.ar    
  32 C32            4.1623     3.6081     4.0554 C.ar    
  33 C33            1.1481    -0.9361    -0.2933 C.ar    
  34 C34            7.9760    -0.7687     3.1603 C.ar    
  35 C35            0.0511    -2.9428     0.4225 C.ar    
  36 C36            7.9321    -2.4368     4.8803 C.ar    
  37 C37            3.6084    -2.5679    -4.8303 C.ar    
  38 C38            6.3806     3.6487     5.8500 C.ar    
  39 C39            5.9435    -1.9126    -4.8042 C.ar    
  40 C40            4.5993     4.7690     4.6446 C.ar    
  41 C41           -1.1678    -2.2817     0.4224 C.ar    
  42 C42            9.2655    -2.7294     4.6366 C.ar    
  43 C43           -0.0669    -0.2677    -0.2960 C.ar    
  44 C44            9.3096    -1.0553     2.9105 C.ar    
  45 C45            4.7779    -2.2211    -5.4854 C.ar    
  46 C46            5.6753     4.7920     5.5161 C.ar    
  47 C47           -1.2285    -0.9400     0.0651 C.ar    
  48 C48            9.9568    -2.0397     3.6477 C.ar    
  49 C49           -2.1652    -4.3227     1.1264 C.3     
  50 C50            9.1237    -4.3573     6.3646 C.3     
  51 C51            1.1113     1.6710    -1.0098 C.3     
  52 C52            9.2544     0.6233     1.2266 C.3     
  53 C53           -2.8121     0.3554     1.2791 C.3     
  54 C54           11.5408    -3.3359     2.4350 C.3     
  55 H55            4.9135    -3.8828     1.0294 H       
  56 H56            3.1372    -1.2801     4.1281 H       
  57 H57            2.3693    -4.0586     0.2266 H       
  58 H58            5.5057    -1.6690     5.3049 H       
  59 H59            5.5817    -1.0989    -0.0012 H       
  60 H60            3.9531     0.7230     1.9875 H       
  61 H61            6.4186    -2.6331    -0.3499 H       
  62 H62            2.6953     0.8977     3.2379 H       
  63 H63            1.7871    -3.1439    -2.6909 H       
  64 H64            7.1656     0.8909     5.9220 H       
  65 H65            6.9270    -1.6884    -2.9100 H       
  66 H66            3.3221     3.5996     3.3770 H       
  67 H67            2.0512    -0.4143    -0.5735 H       
  68 H68            7.4723    -0.0042     2.5876 H       
  69 H69            0.0990    -3.9855     0.6997 H       
  70 H70            7.3943    -2.9721     5.6488 H       
  71 H71            2.7059    -2.8061    -5.3734 H       
  72 H72            7.2181     3.6802     6.5311 H       
  73 H73            6.8253    -1.6492    -5.3694 H       
  74 H74            4.0872     5.6934     4.4215 H       
  75 H75            4.7810    -2.1895    -6.5650 H       
  76 H76            5.9748     5.7346     5.9500 H       
  77 H77           -1.7497    -4.8756     0.2839 H       
  78 H78           -1.4983    -4.4120     1.9840 H       
  79 H79           -3.1428    -4.7311     1.3823 H       
  80 H80            8.7623    -3.6293     7.0908 H       
  81 H81            8.2749    -4.8552     5.8958 H       
  82 H82            9.7450    -5.0968     6.8698 H       
  83 H83            0.9265     2.7131    -1.2706 H       
  84 H84            1.8013     1.6242    -0.1673 H       
  85 H85            1.5464     1.1540    -1.8650 H       
  86 H86            8.8938     1.3811     1.9220 H       
  87 H87            9.9073     1.0889     0.4883 H       
  88 H88            8.4065     0.1607     0.7214 H       
  89 H89           -2.8840    -0.3855     2.0753 H       
  90 H90           -2.0687     1.1060     1.5474 H       
  91 H91           -3.7807     0.8362     1.1417 H       
  92 H92           11.1224    -3.0401     1.4729 H       
  93 H93           12.6190    -3.4633     2.3386 H       
  94 H94           11.0908    -4.2764     2.7531 H       
@<TRIPOS>BOND
   1    1   19 2
   2    2   20 2
   3    3   41 1
   4    3   49 1
   5    4   42 1
   6    4   50 1
   7    5   43 1
   8    5   51 1
   9    6   44 1
  10    6   52 1
  11    7   47 1
  12    7   53 1
  13    8   48 1
  14    8   54 1
  15    9   13 1
  16    9   15 1
  17    9   19 am
  18   10   14 1
  19   10   16 1
  20   10   20 am
  21   11   21 1
  22   11   29 1
  23   11   63 1
  24   12   22 1
  25   12   30 1
  26   12   64 1
  27   13   17 1
  28   13   20 1
  29   13   55 1
  30   14   18 1
  31   14   19 1
  32   14   56 1
  33   15   21 1
  34   15   25 1
  35   15   57 1
  36   16   22 1
  37   16   26 1
  38   16   58 1
  39   17   23 1
  40   17   59 1
  41   17   61 1
  42   18   24 1
  43   18   60 1
  44   18   62 1
  45   21   23 2
  46   22   24 2
  47   23   27 1
  48   24   28 1
  49   25   33 ar
  50   25   35 ar
  51   26   34 ar
  52   26   36 ar
  53   27   29 ar
  54   27   31 ar
  55   28   30 ar
  56   28   32 ar
  57   29   37 ar
  58   30   38 ar
  59   31   39 ar
  60   31   65 1
  61   32   40 ar
  62   32   66 1
  63   33   43 ar
  64   33   67 1
  65   34   44 ar
  66   34   68 1
  67   35   41 ar
  68   35   69 1
  69   36   42 ar
  70   36   70 1
  71   37   45 ar
  72   37   71 1
  73   38   46 ar
  74   38   72 1
  75   39   45 ar
  76   39   73 1
  77   40   46 ar
  78   40   74 1
  79   41   47 ar
  80   42   48 ar
  81   43   47 ar
  82   44   48 ar
  83   45   75 1
  84   46   76 1
  85   49   77 1
  86   49   78 1
  87   49   79 1
  88   50   80 1
  89   50   81 1
  90   50   82 1
  91   51   83 1
  92   51   84 1
  93   51   85 1
  94   52   86 1
  95   52   87 1
  96   52   88 1
  97   53   89 1
  98   53   90 1
  99   53   91 1
 100   54   92 1
 101   54   93 1
 102   54   94 1

#	End of record

#	Name: 6879271
#	Creating user name:	landrgr1
#	Creation time:	28. 01. 2015 13:52

#	Modifying user name:	landrgr1
#	Modification time:	28. 01. 2015 13:52

#	Program:	corina 3.48 0006  22.01.2010

@<TRIPOS>MOLECULE
6879271
  36   37    0    0    0
SMALL
NO_CHARGES


@<TRIPOS>ATOM
   1 O1            -0.0164     1.3555     0.0095 O.3     
   2 O2             4.1888     0.1173    -2.2613 O.2     
   3 O3             1.3793     3.0134     0.6105 O.2     
   4 N4             2.3486    -0.0540    -0.6177 N.pl3   
   5 C5             4.9666     2.0767    -3.3258 C.3     
   6 C6             4.0634     1.3191    -2.3871 C.2     
   7 C7             5.9433     1.1041    -3.9899 C.3     
   8 C8             4.1229     2.7654    -4.4005 C.3     
   9 C9             5.7505     3.1299    -2.5403 C.3     
  10 C10            3.0751     2.0034    -1.6565 C.2     
  11 C11            2.2578     1.3178    -0.8070 C.2     
  12 C12            1.1549    -0.7200    -0.3138 C.ar    
  13 C13            0.0021    -0.0041     0.0020 C.ar    
  14 C14            1.1293    -2.1095    -0.3271 C.ar    
  15 C15            1.1845     1.9811     0.0014 C.2     
  16 C16           -0.0367    -2.7812    -0.0192 C.ar    
  17 C17           -1.1646    -0.6921     0.3155 C.ar    
  18 C18           -1.1805    -2.0721     0.3045 C.ar    
  19 C19           -0.0640    -4.2878    -0.0344 C.3     
  20 H20            5.3848     0.3538    -4.5495 H       
  21 H21            6.5966     1.6521    -4.6688 H       
  22 H22            6.5444     0.6135    -3.2243 H       
  23 H23            3.4271     3.4583    -3.9274 H       
  24 H24            4.7762     3.3134    -5.0794 H       
  25 H25            3.5644     2.0151    -4.9601 H       
  26 H26            6.3516     2.6393    -1.7747 H       
  27 H27            6.4038     3.6780    -3.2192 H       
  28 H28            5.0547     3.8228    -2.0672 H       
  29 H29            2.9636     3.0718    -1.7683 H       
  30 H30            3.1929    -0.5257    -0.6918 H       
  31 H31            2.0214    -2.6637    -0.5790 H       
  32 H32           -2.0608    -0.1452     0.5687 H       
  33 H33           -2.0897    -2.6011     0.5493 H       
  34 H34            0.1998    -4.6661     0.9532 H       
  35 H35           -1.0643    -4.6304    -0.2994 H       
  36 H36            0.6526    -4.6568    -0.7682 H       
@<TRIPOS>BOND
   1    1   13 1
   2    1   15 1
   3    2    6 2
   4    3   15 2
   5    4   11 1
   6    4   12 1
   7    4   30 1
   8    5    6 1
   9    5    7 1
  10    5    8 1
  11    5    9 1
  12    6   10 1
  13    7   20 1
  14    7   21 1
  15    7   22 1
  16    8   23 1
  17    8   24 1
  18    8   25 1
  19    9   26 1
  20    9   27 1
  21    9   28 1
  22   10   11 2
  23   10   29 1
  24   11   15 1
  25   12   13 ar
  26   12   14 ar
  27   13   17 ar
  28   14   16 ar
  29   14   31 1
  30   16   18 ar
  31   16   19 1
  32   17   18 ar
  33   17   32 1
  34   18   33 1
  35   19   34 1
  36   19   35 1
  37   19   36 1

#	End of record

#	Name: 6852401
#	Creating user name:	landrgr1
#	Creation time:	28. 01. 2015 13:52

#	Modifying user name:	landrgr1
#	Modification time:	28. 01. 2015 13:52

#	Program:	corina 3.48 0006  22.01.2010

@<TRIPOS>MOLECULE
6852401
  87   92    0    0    0
SMALL
NO_CHARGES


@<TRIPOS>ATOM
   1 O1             0.8666     2.1363     0.7383 O.3     
   2 O2             4.5118    -2.6516     3.0316 O.3     
   3 O3            -0.3788    -3.2135     1.6593 O.3     
   4 O4             2.7859    -4.4524     3.2311 O.3     
   5 O5             2.6947    -2.4636     4.7260 O.3     
   6 O6             4.6176    -4.6470     1.5358 O.3     
   7 O7            -4.2721     2.8418    -0.5489 O.3     
   8 O8            -4.1863     4.5629    -2.0424 O.2     
   9 O9             5.7801    -6.0708     0.0979 O.3     
  10 O10            8.0952    -5.7866     1.7320 O.3     
  11 O11            7.0107    -7.2054     3.8876 O.3     
  12 O12            5.3568    -8.9445     2.3313 O.3     
  13 C13            0.7034     0.7377     0.4950 C.3     
  14 C14           -0.7871     0.3752     0.6179 C.3     
  15 C15            1.5937    -0.0364     1.4355 C.3     
  16 C16            1.3428    -1.5408     1.3447 C.3     
  17 C17            2.2218    -2.2686     2.3641 C.3     
  18 C18           -1.3879     0.9157    -0.7071 C.3     
  19 C19            3.6946    -1.9754     2.0740 C.3     
  20 C20           -0.1314    -1.8061     1.6690 C.3     
  21 C21           -0.9765    -1.1436     0.5990 C.3     
  22 C22            1.0251     0.4419    -0.9816 C.3     
  23 C23            3.0669     0.2559     1.1421 C.3     
  24 C24           -0.2365     0.9309    -1.7298 C.3     
  25 C25            3.9436    -0.4687     2.1655 C.3     
  26 C26            1.9722    -3.7750     2.2713 C.3     
  27 C27           -1.4316     1.0227     1.8451 C.3     
  28 C28           -1.9260     2.3329    -0.5004 C.3     
  29 C29            4.0467    -2.4648     0.6680 C.3     
  30 C30            1.8744    -1.7844     3.7733 C.3     
  31 C31            2.3255    -4.2661     0.8661 C.3     
  32 C32            3.8011    -3.9723     0.5767 C.3     
  33 C33           -2.3688     2.9505    -1.8461 C.3     
  34 C34           -3.2330     2.3057     0.3186 C.3     
  35 C35           -3.7111     3.5810    -1.5228 C.2     
  36 C36            5.9102    -5.0097     1.0462 C.3     
  37 C37            6.7862    -5.4742     2.2126 C.3     
  38 C38            6.1617    -6.7219     2.8447 C.3     
  39 C39            5.1592    -7.2472     0.6202 C.3     
  40 C40            6.0050    -7.8016     1.7695 C.3     
  41 C41            5.0482    -8.2992    -0.4852 C.3     
  42 H42            1.3831     0.2873     2.4547 H       
  43 H43            1.5781    -1.8922     0.3401 H       
  44 H44           -2.1861     0.2582    -1.0518 H       
  45 H45           -0.3686    -1.3998     2.6522 H       
  46 H46           -2.0253    -1.3766     0.7832 H       
  47 H47           -0.6908    -1.5286    -0.3799 H       
  48 H48            1.9033     1.0020    -1.3028 H       
  49 H49            1.1727    -0.6270    -1.1357 H       
  50 H50            3.3141    -0.0936     0.1396 H       
  51 H51            3.2444     1.3294     1.2068 H       
  52 H52           -0.4635     0.2593    -2.5577 H       
  53 H53           -0.0809     1.9436    -2.1018 H       
  54 H54            3.6976    -0.1200     3.1685 H       
  55 H55            4.9927    -0.2604     1.9554 H       
  56 H56            0.9216    -3.9823     2.4749 H       
  57 H57           -1.3573     2.1072     1.7649 H       
  58 H58           -2.4812     0.7335     1.8994 H       
  59 H59           -0.9157     0.6887     2.7453 H       
  60 H60           -1.1780     2.9606    -0.0162 H       
  61 H61            3.4228    -1.9500    -0.0627 H       
  62 H62            5.0962    -2.2545     0.4623 H       
  63 H63            0.8254    -1.9949     3.9815 H       
  64 H64            2.0502    -0.7109     3.8422 H       
  65 H65            2.1484    -5.3397     0.8012 H       
  66 H66            1.7040    -3.7504     0.1341 H       
  67 H67            4.0527    -4.3215    -0.4247 H       
  68 H68            1.7821     2.4418     0.6785 H       
  69 H69            5.4605    -2.5105     2.9085 H       
  70 H70           -1.2944    -3.4533     1.8572 H       
  71 H71           -1.6573     3.7089    -2.1727 H       
  72 H72           -2.4814     2.1763    -2.6050 H       
  73 H73           -3.1303     2.9275     1.2079 H       
  74 H74           -3.4748     1.2817     0.6033 H       
  75 H75            2.6151    -5.4023     3.2910 H       
  76 H76            2.5285    -2.2055     5.6430 H       
  77 H77            6.3720    -4.1473     0.5655 H       
  78 H78            6.8514    -4.6811     2.9575 H       
  79 H79            5.1842    -6.4714     3.2570 H       
  80 H80            4.1634    -6.9998     0.9881 H       
  81 H81            6.9877    -8.0877     1.3947 H       
  82 H82            8.5488    -5.0419     1.3139 H       
  83 H83            6.0441    -8.5467    -0.8525 H       
  84 H84            4.5746    -9.1964    -0.0867 H       
  85 H85            4.4468    -7.9040    -1.3039 H       
  86 H86            7.1594    -6.5692     4.6004 H       
  87 H87            5.2246    -9.6692     1.7049 H       
@<TRIPOS>BOND
   1    1   13 1
   2    1   68 1
   3    2   19 1
   4    2   69 1
   5    3   20 1
   6    3   70 1
   7    4   26 1
   8    4   75 1
   9    5   30 1
  10    5   76 1
  11    6   32 1
  12    6   36 1
  13    7   34 1
  14    7   35 1
  15    8   35 2
  16    9   36 1
  17    9   39 1
  18   10   37 1
  19   10   82 1
  20   11   38 1
  21   11   86 1
  22   12   40 1
  23   12   87 1
  24   13   14 1
  25   13   15 1
  26   13   22 1
  27   14   18 1
  28   14   21 1
  29   14   27 1
  30   15   16 1
  31   15   23 1
  32   15   42 1
  33   16   17 1
  34   16   20 1
  35   16   43 1
  36   17   19 1
  37   17   26 1
  38   17   30 1
  39   18   24 1
  40   18   28 1
  41   18   44 1
  42   19   25 1
  43   19   29 1
  44   20   21 1
  45   20   45 1
  46   21   46 1
  47   21   47 1
  48   22   24 1
  49   22   48 1
  50   22   49 1
  51   23   25 1
  52   23   50 1
  53   23   51 1
  54   24   52 1
  55   24   53 1
  56   25   54 1
  57   25   55 1
  58   26   31 1
  59   26   56 1
  60   27   57 1
  61   27   58 1
  62   27   59 1
  63   28   33 1
  64   28   34 1
  65   28   60 1
  66   29   32 1
  67   29   61 1
  68   29   62 1
  69   30   63 1
  70   30   64 1
  71   31   32 1
  72   31   65 1
  73   31   66 1
  74   32   67 1
  75   33   35 1
  76   33   71 1
  77   33   72 1
  78   34   73 1
  79   34   74 1
  80   36   37 1
  81   36   77 1
  82   37   38 1
  83   37   78 1
  84   38   40 1
  85   38   79 1
  86   39   40 1
  87   39   41 1
  88   39   80 1
  89   40   81 1
  90   41   83 1
  91   41   84 1
  92   41   85 1

#	End of record

#	Name: 6852399
#	Creating user name:	landrgr1
#	Creation time:	28. 01. 2015 13:52

#	Modifying user name:	landrgr1
#	Modification time:	28. 01. 2015 13:52

#	Program:	corina 3.48 0006  22.01.2010

@<TRIPOS>MOLECULE
6852399
  42   43    0    0    0
SMALL
NO_CHARGES


@<TRIPOS>ATOM
   1 Cl1            0.0000     0.0000     0.0000 Cl      
   2 H2             0.0000     1.3700     0.0000 H       
   3 O3             7.2890    12.4397     7.7385 O.3     
   4 O4             7.2860    11.0676     5.3484 O.3     
   5 N5             6.8173     8.2806    12.5862 N.3     
   6 C6             6.5839     8.9322    11.2893 C.3     
   7 C7             6.9642    10.3862    11.3906 C.ar    
   8 C8             7.4136     8.2244    10.2208 C.3     
   9 C9             6.9560    11.0380    12.6042 C.ar    
  10 C10            6.0498     8.9403    13.6445 C.3     
  11 C11            6.5580    10.3529    13.8804 C.3     
  12 C12            7.3123    11.0831    10.2320 C.ar    
  13 C13            7.3616     8.9790     8.9199 C.ar    
  14 C14            7.3285    10.3720     8.9319 C.ar    
  15 C15            6.4995     6.8479    12.5204 C.3     
  16 C16            7.3115    12.3803    12.6636 C.ar    
  17 C17            7.6540    12.4301    10.2982 C.ar    
  18 C18            7.3509     8.3008     7.7183 C.ar    
  19 C19            7.3075    11.0805     7.7310 C.ar    
  20 C20            7.6556    13.0725    11.5203 C.ar    
  21 C21            7.3050    10.3867     6.5255 C.ar    
  22 C22            7.3224     9.0006     6.5249 C.ar    
  23 H23            5.5283     8.8522    11.0296 H       
  24 H24            8.4486     8.1575    10.5559 H       
  25 H25            7.0206     7.2192    10.0687 H       
  26 H26            5.0000     8.9807    13.3541 H       
  27 H27            6.1441     8.3667    14.5666 H       
  28 H28            7.4223    10.3111    14.5432 H       
  29 H29            5.7728    10.9345    14.3634 H       
  30 H30            7.1300     6.3700    11.7706 H       
  31 H31            6.6810     6.3904    13.4929 H       
  32 H32            5.4516     6.7203    12.2487 H       
  33 H33            7.3187    12.8881    13.6168 H       
  34 H34            7.9166    12.9693     9.4001 H       
  35 H35            7.3655     7.2210     7.7092 H       
  36 H36            7.9256    14.1164    11.5814 H       
  37 H37            7.3134     8.4639     5.5878 H       
  38 H38            8.1670    12.8450     7.7323 H       
  39 H39            8.1638    11.2753     5.0000 H       
  40 O40           13.4486    20.0833    19.5728 O.3     
  41 H41           13.4618    19.1164    19.5675 H       
  42 H42           14.3266    20.4886    19.5666 H       
@<TRIPOS>BOND
   1    1    2 1
   2    3   19 1
   3    3   38 1
   4    4   21 1
   5    4   39 1
   6    5    6 1
   7    5   10 1
   8    5   15 1
   9    6    7 1
  10    6    8 1
  11    6   23 1
  12    7    9 ar
  13    7   12 ar
  14    8   13 1
  15    8   24 1
  16    8   25 1
  17    9   11 1
  18    9   16 ar
  19   10   11 1
  20   10   26 1
  21   10   27 1
  22   11   28 1
  23   11   29 1
  24   12   14 1
  25   12   17 ar
  26   13   14 ar
  27   13   18 ar
  28   14   19 ar
  29   15   30 1
  30   15   31 1
  31   15   32 1
  32   16   20 ar
  33   16   33 1
  34   17   20 ar
  35   17   34 1
  36   18   22 ar
  37   18   35 1
  38   19   21 ar
  39   20   36 1
  40   21   22 ar
  41   22   37 1
  42   40   41 1
  43   40   42 1

#	End of record

#	Name: 6846557
#	Creating user name:	landrgr1
#	Creation time:	28. 01. 2015 13:52

#	Modifying user name:	landrgr1
#	Modification time:	28. 01. 2015 13:52

#	Program:	corina 3.48 0006  22.01.2010

@<TRIPOS>MOLECULE
6846557
  39   41    0    0    0
SMALL
NO_CHARGES


@<TRIPOS>ATOM
   1 O1            -0.0163     1.3540     0.0095 O.3     
   2 O2             2.4122    -2.7307    -0.0384 O.3     
   3 N3            -3.7382     1.9670     0.0669 N.pl3   
   4 N4            -2.6372     4.0442     0.0738 N.ar    
   5 N5            -2.5128     1.2882     0.0453 N.2     
   6 N6            -2.6019     5.3245     0.0855 N.ar    
   7 C7            -4.9923     4.0492     0.1021 C.ar    
   8 C8            -4.9435     5.4675     0.1149 C.ar    
   9 C9            -3.7628     3.3503     0.0807 C.ar    
  10 C10           -1.2012    -0.7239     0.0096 C.ar    
  11 C11           -6.2307     3.4008     0.1113 C.ar    
  12 C12            0.0021    -0.0041     0.0020 C.ar    
  13 C13           -6.1376     6.1987     0.1366 C.ar    
  14 C14           -1.1731    -2.1208     0.0014 C.ar    
  15 C15            1.2084    -0.6819    -0.0136 C.ar    
  16 C16            1.2257    -2.0690    -0.0221 C.ar    
  17 C17           -7.3754     4.1431     0.1325 C.ar    
  18 C18           -7.3288     5.5346     0.1450 C.ar    
  19 C19           -3.6760     6.0797     0.1055 C.ar    
  20 C20            0.0343    -2.7845    -0.0146 C.ar    
  21 C21           -2.4898    -0.0101     0.0323 C.2     
  22 C22            1.2479     2.0200     0.0010 C.3     
  23 C23            2.3585    -4.1587    -0.0464 C.3     
  24 H24           -6.2810     2.3220     0.1013 H       
  25 H25           -6.1155     7.2784     0.1469 H       
  26 H26           -2.0971    -2.6799     0.0076 H       
  27 H27            2.1371    -0.1306    -0.0195 H       
  28 H28           -8.3328     3.6433     0.1392 H       
  29 H29           -8.2506     6.0970     0.1621 H       
  30 H30            0.0549    -3.8643    -0.0206 H       
  31 H31           -3.5881     7.1561     0.1149 H       
  32 H32           -4.5695     1.4671     0.0721 H       
  33 H33           -3.4153    -0.5667     0.0382 H       
  34 H34            1.0905     3.0985     0.0083 H       
  35 H35            1.8173     1.7300     0.8840 H       
  36 H36            1.8003     1.7395    -0.8958 H       
  37 H37            3.3718    -4.5603    -0.0593 H       
  38 H38            1.8406    -4.5079     0.8469 H       
  39 H39            1.8222    -4.4972    -0.9330 H       
@<TRIPOS>BOND
   1    1   12 1
   2    1   22 1
   3    2   16 1
   4    2   23 1
   5    3    5 1
   6    3    9 1
   7    3   32 1
   8    4    6 ar
   9    4    9 ar
  10    5   21 2
  11    6   19 ar
  12    7    8 ar
  13    7    9 ar
  14    7   11 ar
  15    8   13 ar
  16    8   19 ar
  17   10   12 ar
  18   10   14 ar
  19   10   21 1
  20   11   17 ar
  21   11   24 1
  22   12   15 ar
  23   13   18 ar
  24   13   25 1
  25   14   20 ar
  26   14   26 1
  27   15   16 ar
  28   15   27 1
  29   16   20 ar
  30   17   18 ar
  31   17   28 1
  32   18   29 1
  33   19   31 1
  34   20   30 1
  35   21   33 1
  36   22   34 1
  37   22   35 1
  38   22   36 1
  39   23   37 1
  40   23   38 1
  41   23   39 1

#	End of record

#	Name: 6842960
#	Creating user name:	landrgr1
#	Creation time:	28. 01. 2015 13:52

#	Modifying user name:	landrgr1
#	Modification time:	28. 01. 2015 13:52

#	Program:	corina 3.48 0006  22.01.2010

@<TRIPOS>MOLECULE
6842960
  48   51    0    0    0
SMALL
NO_CHARGES


@<TRIPOS>ATOM
   1 O1            -0.0465     4.0667     0.4133 O.2     
   2 O2             0.1877     7.6411     1.8258 O.2     
   3 N3            -0.2838     1.5092    -0.1365 N.3     
   4 N4            -1.1428     4.1079     2.3417 N.am    
   5 N5            -0.8701     5.4709     2.5166 N.pl3   
   6 C6             1.8428     1.0319    -1.2244 C.3     
   7 C7             1.1669     1.5243     0.0614 C.3     
   8 C8             1.6167     2.0876    -2.3092 C.3     
   9 C9             0.1658     2.4984    -2.3224 C.ar    
  10 C10           -0.6889     2.2067    -1.2734 C.ar    
  11 C11           -0.9833     1.9990     1.0588 C.3     
  12 C12           -0.3076     3.1889    -3.4266 C.ar    
  13 C13           -2.0205     2.6201    -1.3397 C.ar    
  14 C14           -1.6269     3.5925    -3.4879 C.ar    
  15 C15           -2.4838     3.3081    -2.4407 C.ar    
  16 C16           -0.6900     3.4651     1.2470 C.2     
  17 C17           -1.7445     8.2250     4.8547 C.ar    
  18 C18           -1.1377     7.4806     3.7389 C.2     
  19 C19           -1.5296     9.6176     4.9450 C.ar    
  20 C20           -1.3232     6.1140     3.6120 C.2     
  21 C21           -0.3318     8.2247     2.7647 C.2     
  22 C22           -2.5266     7.5807     5.8125 C.ar    
  23 C23           -0.7178    10.2945     3.9408 C.2     
  24 C24           -2.1042    10.3325     6.0046 C.ar    
  25 C25           -0.1584     9.6174     2.9163 C.2     
  26 C26           -3.0785     8.3105     6.8423 C.ar    
  27 C27           -2.8616     9.6794     6.9336 C.ar    
  28 H28            2.9114     0.9024    -1.0530 H       
  29 H29            1.4009     0.0847    -1.5339 H       
  30 H30            1.4955     2.5401     0.2814 H       
  31 H31            1.4301     0.8650     0.8885 H       
  32 H32            2.2385     2.9587    -2.1029 H       
  33 H33            1.8852     1.6728    -3.2808 H       
  34 H34           -2.0569     1.8561     0.9356 H       
  35 H35           -0.6410     1.4449     1.9328 H       
  36 H36            0.3600     3.4128    -4.2455 H       
  37 H37           -2.6921     2.3991    -0.5233 H       
  38 H38           -3.5154     3.6244    -2.4855 H       
  39 H39           -1.9884     4.1303    -4.3519 H       
  40 H40           -1.6575     3.6267     3.0084 H       
  41 H41           -0.3555     5.9520     1.8499 H       
  42 H42           -1.8307     5.5634     4.3902 H       
  43 H43           -2.6989     6.5166     5.7473 H       
  44 H44           -0.5600    11.3601     4.0191 H       
  45 H45           -1.9478    11.3980     6.0862 H       
  46 H46            0.4372    10.1550     2.1934 H       
  47 H47           -3.6849     7.8139     7.5852 H       
  48 H48           -3.3020    10.2353     7.7481 H       
@<TRIPOS>BOND
   1    1   16 2
   2    2   21 2
   3    3    7 1
   4    3   10 1
   5    3   11 1
   6    4    5 1
   7    4   16 am
   8    4   40 1
   9    5   20 1
  10    5   41 1
  11    6    7 1
  12    6    8 1
  13    6   28 1
  14    6   29 1
  15    7   30 1
  16    7   31 1
  17    8    9 1
  18    8   32 1
  19    8   33 1
  20    9   10 ar
  21    9   12 ar
  22   10   13 ar
  23   11   16 1
  24   11   34 1
  25   11   35 1
  26   12   14 ar
  27   12   36 1
  28   13   15 ar
  29   13   37 1
  30   14   15 ar
  31   14   39 1
  32   15   38 1
  33   17   18 1
  34   17   19 ar
  35   17   22 ar
  36   18   20 2
  37   18   21 1
  38   19   23 1
  39   19   24 ar
  40   20   42 1
  41   21   25 1
  42   22   26 ar
  43   22   43 1
  44   23   25 2
  45   23   44 1
  46   24   27 ar
  47   24   45 1
  48   25   46 1
  49   26   27 ar
  50   26   47 1
  51   27   48 1

#	End of record

#	Name: 6819152
#	Creating user name:	landrgr1
#	Creation time:	28. 01. 2015 13:52

#	Modifying user name:	landrgr1
#	Modification time:	28. 01. 2015 13:52

#	Program:	corina 3.48 0006  22.01.2010

@<TRIPOS>MOLECULE
6819152
  44   47    0    0    0
SMALL
NO_CHARGES


@<TRIPOS>ATOM
   1 F1            -5.3965    -0.3633    -1.2695 F       
   2 F2            -4.9261     0.6745     0.7107 F       
   3 F3            -5.8304    -1.4235     0.7071 F       
   4 O4            -0.0162     1.3428     0.0094 O.3     
   5 N5             0.5271     7.7638     0.0361 N.ar    
   6 N6             0.7408     4.1497     0.0163 N.2     
   7 N7             1.1221     5.4978     0.0192 N.pl3   
   8 N8            -1.1279     6.1550     0.0448 N.ar    
   9 N9            -2.0553     7.0471     0.0586 N.ar    
  10 C10           -1.1854    -0.8810     0.0079 C.ar    
  11 C11            0.0021    -0.0041     0.0020 C.2     
  12 C12           -2.4671    -0.3263     0.0228 C.ar    
  13 C13           -3.5723    -1.1519     0.0283 C.ar    
  14 C14           -1.0324    -2.2696    -0.0072 C.ar    
  15 C15            1.2991    -0.4227    -0.0126 C.2     
  16 C16           -3.4132    -2.5263     0.0195 C.ar    
  17 C17           -2.1462    -3.0828    -0.0016 C.ar    
  18 C18            1.2496     1.8073    -0.0002 C.2     
  19 C19            2.1024     0.7259    -0.0141 C.2     
  20 C20           -4.9561    -0.5553     0.0444 C.3     
  21 C21           -0.0263    10.1480     0.0532 C.ar    
  22 C22            1.6483     3.2166     0.0029 C.2     
  23 C23           -0.4061     8.7145     0.0503 C.ar    
  24 C24            1.3182    10.5156     0.0409 C.ar    
  25 C25           -1.0125    11.1330     0.0622 C.ar    
  26 C26            1.6657    11.8511     0.0432 C.ar    
  27 C27           -0.6532    12.4655     0.0644 C.ar    
  28 C28            0.6828    12.8243     0.0575 C.ar    
  29 C29            0.1571     6.4900     0.0335 C.ar    
  30 C30           -1.7514     8.3324     0.0620 C.ar    
  31 H31           -2.5927     0.7463     0.0305 H       
  32 H32           -0.0443    -2.7052    -0.0237 H       
  33 H33            1.6431    -1.4465    -0.0211 H       
  34 H34           -4.2820    -3.1678     0.0242 H       
  35 H35           -2.0294    -4.1564    -0.0136 H       
  36 H36            3.1819     0.7570    -0.0246 H       
  37 H37            2.6952     3.4817    -0.0060 H       
  38 H38            2.0865     9.7566     0.0301 H       
  39 H39           -2.0558    10.8540     0.0672 H       
  40 H40            2.7072    12.1371     0.0341 H       
  41 H41           -1.4165    13.2295     0.0711 H       
  42 H42            0.9593    13.8683     0.0592 H       
  43 H43           -2.5318     9.0788     0.0733 H       
  44 H44            2.0624     5.7358     0.0112 H       
@<TRIPOS>BOND
   1    1   20 1
   2    2   20 1
   3    3   20 1
   4    4   11 1
   5    4   18 1
   6    5   23 ar
   7    5   29 ar
   8    6    7 1
   9    6   22 2
  10    7   29 1
  11    7   44 1
  12    8    9 ar
  13    8   29 ar
  14    9   30 ar
  15   10   11 1
  16   10   12 ar
  17   10   14 ar
  18   11   15 2
  19   12   13 ar
  20   12   31 1
  21   13   16 ar
  22   13   20 1
  23   14   17 ar
  24   14   32 1
  25   15   19 1
  26   15   33 1
  27   16   17 ar
  28   16   34 1
  29   17   35 1
  30   18   19 2
  31   18   22 1
  32   19   36 1
  33   21   23 1
  34   21   24 ar
  35   21   25 ar
  36   22   37 1
  37   23   30 ar
  38   24   26 ar
  39   24   38 1
  40   25   27 ar
  41   25   39 1
  42   26   28 ar
  43   26   40 1
  44   27   28 ar
  45   27   41 1
  46   28   42 1
  47   30   43 1

#	End of record

#	Name: 6799110
#	Creating user name:	landrgr1
#	Creation time:	28. 01. 2015 13:52

#	Modifying user name:	landrgr1
#	Modification time:	28. 01. 2015 13:52

#	Program:	corina 3.48 0006  22.01.2010

@<TRIPOS>MOLECULE
6799110
  40   43    0    0    0
SMALL
NO_CHARGES


@<TRIPOS>ATOM
   1 O1            -0.0162     1.3438     0.0094 O.3     
   2 N2            -3.7754    -7.5400    -0.0054 N.pl3   
   3 N3            -3.0510    -5.1680     0.0013 N.ar    
   4 N4            -0.5518    -6.1703    -0.0286 N.ar    
   5 N5            -0.7523    -4.8970    -0.0198 N.ar    
   6 N6            -2.1422    -3.0117     0.0051 N.pl3   
   7 N7            -1.0198    -2.1734    -0.0007 N.2     
   8 C8            -3.0910    -8.7446    -0.0188 C.ar    
   9 C9            -1.7141    -8.4718    -0.0297 C.ar    
  10 C10           -2.8930    -6.4881    -0.0077 C.ar    
  11 C11           -1.5812    -7.0049    -0.0231 C.ar    
  12 C12           -3.5228   -10.0664    -0.0218 C.ar    
  13 C13           -0.7958    -9.5187    -0.0438 C.ar    
  14 C14           -5.2344    -7.4075     0.0031 C.3     
  15 C15           -2.6029   -11.0936    -0.0360 C.ar    
  16 C16           -1.2437   -10.8226    -0.0471 C.ar    
  17 C17           -1.9794    -4.3862    -0.0043 C.ar    
  18 C18            0.0021    -0.0041     0.0020 C.2     
  19 C19           -1.1727    -0.8816     0.0081 C.2     
  20 C20            1.2447     1.8071    -0.0001 C.2     
  21 C21            1.3051    -0.4091    -0.0126 C.2     
  22 C22            2.0917     0.7581    -0.0138 C.2     
  23 C23           -2.5573    -0.2869     0.0246 C.3     
  24 C24            1.6462     3.2596     0.0034 C.3     
  25 H25           -4.5796   -10.2887    -0.0128 H       
  26 H26            0.2637    -9.3099    -0.0526 H       
  27 H27           -5.5910    -7.3830     1.0328 H       
  28 H28           -5.5182    -6.4841    -0.5018 H       
  29 H29           -5.6794    -8.2567    -0.5154 H       
  30 H30           -2.9445   -12.1181    -0.0383 H       
  31 H31           -0.5330   -11.6357    -0.0584 H       
  32 H32           -3.0334    -2.6289     0.0157 H       
  33 H33            1.6634    -1.4279    -0.0212 H       
  34 H34            3.1707     0.8048    -0.0242 H       
  35 H35           -2.8815    -0.1494     1.0561 H       
  36 H36           -2.5448     0.6772    -0.4839 H       
  37 H37           -3.2472    -0.9583    -0.4866 H       
  38 H38            0.7525     3.8836     0.0154 H       
  39 H39            2.2470     3.4683     0.8886 H       
  40 H40            2.2295     3.4775    -0.8913 H       
@<TRIPOS>BOND
   1    1   18 1
   2    1   20 1
   3    2    8 1
   4    2   10 1
   5    2   14 1
   6    3   10 ar
   7    3   17 ar
   8    4    5 ar
   9    4   11 ar
  10    5   17 ar
  11    6    7 1
  12    6   17 1
  13    6   32 1
  14    7   19 2
  15    8    9 ar
  16    8   12 ar
  17    9   11 1
  18    9   13 ar
  19   10   11 ar
  20   12   15 ar
  21   12   25 1
  22   13   16 ar
  23   13   26 1
  24   14   27 1
  25   14   28 1
  26   14   29 1
  27   15   16 ar
  28   15   30 1
  29   16   31 1
  30   18   19 1
  31   18   21 2
  32   19   23 1
  33   20   22 2
  34   20   24 1
  35   21   22 1
  36   21   33 1
  37   22   34 1
  38   23   35 1
  39   23   36 1
  40   23   37 1
  41   24   38 1
  42   24   39 1
  43   24   40 1

#	End of record

#	Name: 6636276
#	Creating user name:	landrgr1
#	Creation time:	28. 01. 2015 13:52

#	Modifying user name:	landrgr1
#	Modification time:	28. 01. 2015 13:52

#	Program:	corina 3.48 0006  22.01.2010

@<TRIPOS>MOLECULE
6636276
  56   57    0    0    0
SMALL
NO_CHARGES


@<TRIPOS>ATOM
   1 S1            -0.3894     1.2784    -0.1980 S.o2    
   2 O2            -1.3132     5.9147    -1.9098 O.2     
   3 O3            -0.3169    -0.1347    -0.3282 O.2     
   4 O4             0.7535     2.1011    -0.0076 O.2     
   5 N5            -1.1445     1.8355    -1.5625 N.am    
   6 C6            -1.3995     3.2690    -1.7251 C.3     
   7 C7            -0.2664     3.8997    -2.5369 C.3     
   8 C8             0.4722     6.2459    -3.4105 C.3     
   9 C9            -2.7265     3.4708    -2.4594 C.3     
  10 C10           -0.4412     5.3963    -2.5649 C.2     
  11 C11           -3.8741     2.9515    -1.5909 C.3     
  12 C12            0.0833     7.7180    -3.2603 C.3     
  13 C13            1.9189     6.0513    -2.9522 C.3     
  14 C14            0.3417     5.8310    -4.8773 C.3     
  15 C15           -5.1812     3.1504    -2.3142 C.ar    
  16 C16           -1.4647     1.5984     1.1607 C.ar    
  17 C17           -5.6689     2.1593    -3.1454 C.ar    
  18 C18           -5.8952     4.3215    -2.1421 C.ar    
  19 C19           -2.3992     0.6530     1.5401 C.ar    
  20 C20           -1.3700     2.7924     1.8507 C.ar    
  21 C21           -6.8678     2.3417    -3.8089 C.ar    
  22 C22           -7.0941     4.5038    -2.8055 C.ar    
  23 C23           -3.2428     0.9041     2.6060 C.ar    
  24 C24           -2.2136     3.0435     2.9167 C.ar    
  25 C25           -3.1516     2.1003     3.2928 C.ar    
  26 C26           -7.5793     3.5150    -3.6408 C.ar    
  27 C27           -4.0716     2.3742     4.4545 C.3     
  28 H28           -1.4512     3.7423    -0.7446 H       
  29 H29            0.6906     3.6543    -2.0765 H       
  30 H30           -0.2896     3.5121    -3.5554 H       
  31 H31           -2.8735     4.5323    -2.6590 H       
  32 H32           -2.7074     2.9232    -3.4016 H       
  33 H33           -1.4180     1.2128    -2.2541 H       
  34 H34           -3.7272     1.8901    -1.3913 H       
  35 H35           -3.8933     3.4992    -0.6487 H       
  36 H36            0.1763     8.0136    -2.2153 H       
  37 H37            0.7439     8.3325    -3.8719 H       
  38 H38           -0.9474     7.8567    -3.5868 H       
  39 H39            2.1960     5.0025    -3.0592 H       
  40 H40            2.5795     6.6658    -3.5638 H       
  41 H41            2.0119     6.3469    -1.9072 H       
  42 H42           -0.6890     5.9696    -5.2038 H       
  43 H43            1.0023     6.4455    -5.4889 H       
  44 H44            0.6187     4.7822    -4.9843 H       
  45 H45           -5.1131     1.2427    -3.2767 H       
  46 H46           -5.5165     5.0938    -1.4890 H       
  47 H47           -2.4704    -0.2816     1.0036 H       
  48 H48           -0.6367     3.5290     1.5573 H       
  49 H49           -7.2485     1.5677    -4.4588 H       
  50 H50           -7.6522     5.4186    -2.6707 H       
  51 H51           -3.9733     0.1658     2.9020 H       
  52 H52           -2.1394     3.9762     3.4560 H       
  53 H53           -8.5158     3.6576    -4.1594 H       
  54 H54           -3.6089     2.0200     5.3757 H       
  55 H55           -4.2542     3.4462     4.5285 H       
  56 H56           -5.0171     1.8544     4.2996 H       
@<TRIPOS>BOND
   1    1    3 2
   2    1    4 2
   3    1    5 am
   4    1   16 1
   5    2   10 2
   6    5    6 1
   7    5   33 1
   8    6    7 1
   9    6    9 1
  10    6   28 1
  11    7   10 1
  12    7   29 1
  13    7   30 1
  14    8   10 1
  15    8   12 1
  16    8   13 1
  17    8   14 1
  18    9   11 1
  19    9   31 1
  20    9   32 1
  21   11   15 1
  22   11   34 1
  23   11   35 1
  24   12   36 1
  25   12   37 1
  26   12   38 1
  27   13   39 1
  28   13   40 1
  29   13   41 1
  30   14   42 1
  31   14   43 1
  32   14   44 1
  33   15   17 ar
  34   15   18 ar
  35   16   19 ar
  36   16   20 ar
  37   17   21 ar
  38   17   45 1
  39   18   22 ar
  40   18   46 1
  41   19   23 ar
  42   19   47 1
  43   20   24 ar
  44   20   48 1
  45   21   26 ar
  46   21   49 1
  47   22   26 ar
  48   22   50 1
  49   23   25 ar
  50   23   51 1
  51   24   25 ar
  52   24   52 1
  53   25   27 1
  54   26   53 1
  55   27   54 1
  56   27   55 1
  57   27   56 1

#	End of record

#	Name: 6624981
#	Creating user name:	landrgr1
#	Creation time:	28. 01. 2015 13:52

#	Modifying user name:	landrgr1
#	Modification time:	28. 01. 2015 13:52

#	Program:	corina 3.48 0006  22.01.2010

@<TRIPOS>MOLECULE
6624981
  48   50    0    0    0
SMALL
NO_CHARGES


@<TRIPOS>ATOM
   1 O1            -0.5070     3.2535     0.4036 O.2     
   2 O2             1.2078    -0.0249    -1.8766 O.2     
   3 N3             0.3064     1.1345     0.3854 N.am    
   4 N4             0.6760    -2.0946    -1.2805 N.am    
   5 N5             2.2311    -6.2148    -1.5359 N.ar    
   6 C6            -0.2265    -0.1747    -0.0085 C.3     
   7 C7             1.6496     1.3851     0.9137 C.3     
   8 C8            -1.6361     0.0696    -0.4863 C.ar    
   9 C9             1.6086     1.3621     2.4430 C.3     
  10 C10           -1.8635     1.4424    -0.3606 C.ar    
  11 C11            2.9797     1.7559     2.9960 C.3     
  12 C12           -0.6391     2.0668     0.1760 C.2     
  13 C13            0.6041    -0.7581    -1.1224 C.2     
  14 C14           -2.6228    -0.7562    -0.9720 C.ar    
  15 C15           -3.1018     1.9682    -0.7326 C.ar    
  16 C16            2.9055     1.8541     4.5210 C.3     
  17 C17            4.0116     0.6969     2.6027 C.3     
  18 C18           -3.8491    -0.2270    -1.3391 C.ar    
  19 C19           -4.0849     1.1309    -1.2187 C.ar    
  20 C20            1.4834    -2.6617    -2.3633 C.3     
  21 C21            1.3957    -4.1656    -2.3208 C.ar    
  22 C22            0.4053    -4.8314    -3.0271 C.ar    
  23 C23            2.3013    -4.8985    -1.5777 C.ar    
  24 C24            0.3633    -6.2153    -2.9590 C.ar    
  25 C25            1.3033    -6.8809    -2.1947 C.ar    
  26 H26           -0.2329    -0.8494     0.8476 H       
  27 H27            2.3304     0.6124     0.5568 H       
  28 H28            1.9973     2.3608     0.5743 H       
  29 H29            0.8575     2.0682     2.7970 H       
  30 H30            1.3536     0.3588     2.7845 H       
  31 H31            3.2742     2.7209     2.5836 H       
  32 H32           -2.4415    -1.8166    -1.0674 H       
  33 H33           -3.2901     3.0276    -0.6399 H       
  34 H34            2.6110     0.8891     4.9334 H       
  35 H35            3.8824     2.1347     4.9149 H       
  36 H36            2.1704     2.6086     4.8012 H       
  37 H37            3.7170    -0.2682     3.0151 H       
  38 H38            4.0644     0.6269     1.5162 H       
  39 H39            4.9884     0.9775     2.9966 H       
  40 H40            0.1931    -2.6810    -0.6773 H       
  41 H41           -4.6233    -0.8762    -1.7207 H       
  42 H42           -5.0432     1.5375    -1.5063 H       
  43 H43            1.1089    -2.3029    -3.3220 H       
  44 H44            2.5221    -2.3548    -2.2411 H       
  45 H45           -0.3163    -4.2847    -3.6160 H       
  46 H46            3.0754    -4.3874    -1.0245 H       
  47 H47           -0.3942    -6.7665    -3.4963 H       
  48 H48            1.2774    -7.9590    -2.1364 H       
@<TRIPOS>BOND
   1    1   12 2
   2    2   13 2
   3    3    6 1
   4    3    7 1
   5    3   12 am
   6    4   13 am
   7    4   20 1
   8    4   40 1
   9    5   23 ar
  10    5   25 ar
  11    6    8 1
  12    6   13 1
  13    6   26 1
  14    7    9 1
  15    7   27 1
  16    7   28 1
  17    8   10 ar
  18    8   14 ar
  19    9   11 1
  20    9   29 1
  21    9   30 1
  22   10   12 1
  23   10   15 ar
  24   11   16 1
  25   11   17 1
  26   11   31 1
  27   14   18 ar
  28   14   32 1
  29   15   19 ar
  30   15   33 1
  31   16   34 1
  32   16   35 1
  33   16   36 1
  34   17   37 1
  35   17   38 1
  36   17   39 1
  37   18   19 ar
  38   18   41 1
  39   19   42 1
  40   20   21 1
  41   20   43 1
  42   20   44 1
  43   21   22 ar
  44   21   23 ar
  45   22   24 ar
  46   22   45 1
  47   23   46 1
  48   24   25 ar
  49   24   47 1
  50   25   48 1

#	End of record

#	Name: 6624440
#	Creating user name:	landrgr1
#	Creation time:	28. 01. 2015 13:52

#	Modifying user name:	landrgr1
#	Modification time:	28. 01. 2015 13:52

#	Program:	corina 3.48 0006  22.01.2010

@<TRIPOS>MOLECULE
6624440
  50   52    0    0    0
SMALL
NO_CHARGES


@<TRIPOS>ATOM
   1 S1            -0.0172     1.4168     0.0098 S.o2    
   2 S2             0.7607     5.4208   -11.0980 S.3     
   3 O3            -3.0063     5.3032    -7.2771 O.2     
   4 O4             0.0021    -0.0041     0.0020 O.2     
   5 O5             1.1617     2.2101     0.0028 O.2     
   6 N6            -0.9002     1.8797    -1.3124 N.am    
   7 N7            -1.0786     4.5839    -8.1069 N.am    
   8 C8            -1.6344     3.4802    -3.0097 C.3     
   9 C9            -1.3952     4.7122    -5.6570 C.3     
  10 C10           -1.9997     4.9473    -3.2442 C.3     
  11 C11           -0.5322     3.0666    -3.9869 C.3     
  12 C12           -2.4975     5.1258    -4.6799 C.3     
  13 C13           -1.0300     3.2451    -5.4226 C.3     
  14 C14           -1.1366     3.3017    -1.5741 C.3     
  15 C15           -1.8856     4.8880    -7.0711 C.2     
  16 C16           -1.5553     4.7548    -9.4816 C.3     
  17 C17           -0.9297     1.8941     1.4396 C.ar    
  18 C18           -0.4696     4.3474   -10.4440 C.2     
  19 C19           -1.8430     1.0209     2.0000 C.ar    
  20 C20           -0.7281     3.1397     2.0041 C.ar    
  21 C21           -0.2952     3.1178   -10.9309 C.2     
  22 C22           -2.5589     1.3954     3.1217 C.ar    
  23 C23           -1.4439     3.5143     3.1258 C.ar    
  24 C24           -2.3611     2.6430     3.6832 C.ar    
  25 C25            0.7717     2.9815   -11.8023 C.2     
  26 C26            1.4636     4.1003   -12.0231 C.2     
  27 H27           -2.5142     2.8567    -3.1694 H       
  28 H28           -0.5155     5.3356    -5.4974 H       
  29 H29           -2.7850     5.2419    -2.5481 H       
  30 H30           -1.1200     5.5707    -3.0845 H       
  31 H31            0.3476     3.6900    -3.8272 H       
  32 H32           -0.2719     2.0214    -3.8199 H       
  33 H33           -2.7577     6.1710    -4.8469 H       
  34 H34           -3.3773     4.5024    -4.8395 H       
  35 H35           -1.9097     2.6216    -5.5822 H       
  36 H36           -0.2447     2.9504    -6.1187 H       
  37 H37           -1.8873     3.6790    -0.8796 H       
  38 H38           -0.2072     3.8551    -1.4403 H       
  39 H39           -1.2609     1.2094    -1.9136 H       
  40 H40           -0.1823     4.2518    -7.9421 H       
  41 H41           -2.4351     4.1313    -9.6413 H       
  42 H42           -1.8155     5.8000    -9.6486 H       
  43 H43           -1.9975     0.0462     1.5614 H       
  44 H44           -0.0110     3.8202     1.5691 H       
  45 H45           -0.9374     2.2913   -10.6650 H       
  46 H46           -3.2730     0.7134     3.5591 H       
  47 H47           -1.2861     4.4873     3.5671 H       
  48 H48           -2.9207     2.9358     4.5593 H       
  49 H49            1.0249     2.0404   -12.2678 H       
  50 H50            2.3236     4.1828   -12.6712 H       
@<TRIPOS>BOND
   1    1    4 2
   2    1    5 2
   3    1    6 am
   4    1   17 1
   5    2   18 1
   6    2   26 1
   7    3   15 2
   8    6   14 1
   9    6   39 1
  10    7   15 am
  11    7   16 1
  12    7   40 1
  13    8   10 1
  14    8   11 1
  15    8   14 1
  16    8   27 1
  17    9   12 1
  18    9   13 1
  19    9   15 1
  20    9   28 1
  21   10   12 1
  22   10   29 1
  23   10   30 1
  24   11   13 1
  25   11   31 1
  26   11   32 1
  27   12   33 1
  28   12   34 1
  29   13   35 1
  30   13   36 1
  31   14   37 1
  32   14   38 1
  33   16   18 1
  34   16   41 1
  35   16   42 1
  36   17   19 ar
  37   17   20 ar
  38   18   21 2
  39   19   22 ar
  40   19   43 1
  41   20   23 ar
  42   20   44 1
  43   21   25 1
  44   21   45 1
  45   22   24 ar
  46   22   46 1
  47   23   24 ar
  48   23   47 1
  49   24   48 1
  50   25   26 2
  51   25   49 1
  52   26   50 1

#	End of record

#	Name: 6624223
#	Creating user name:	landrgr1
#	Creation time:	28. 01. 2015 13:52

#	Modifying user name:	landrgr1
#	Modification time:	28. 01. 2015 13:52

#	Program:	corina 3.48 0006  22.01.2010

@<TRIPOS>MOLECULE
6624223
  45   47    0    0    0
SMALL
NO_CHARGES


@<TRIPOS>ATOM
   1 S1            -0.0225     1.8097     0.0120 S.3     
   2 O2            -4.5175    -4.2106    -2.3477 O.3     
   3 O3            -2.3441     0.2498     0.0258 O.2     
   4 O4             6.3691     4.2432    -0.0388 O.3     
   5 N5            -1.6400    -1.8540     0.0078 N.am    
   6 N6             2.6061     1.2726    -0.0160 N.ar    
   7 N7             3.8632     1.5335    -0.0270 N.ar    
   8 C8            -2.9937    -3.8909     0.0097 C.3     
   9 C9            -3.0144    -2.3611     0.0182 C.3     
  10 C10           -4.4075    -4.4125     0.0204 C.ar    
  11 C11           -5.1065    -4.5482    -1.1704 C.ar    
  12 C12           -5.0065    -4.7613     1.2151 C.ar    
  13 C13           -6.4078    -5.0286    -1.1572 C.ar    
  14 C14           -6.3039    -5.2399     1.2256 C.ar    
  15 C15           -1.4117    -0.5257     0.0127 C.2     
  16 C16           -7.0045    -5.3707     0.0411 C.ar    
  17 C17            0.0021    -0.0041     0.0020 C.3     
  18 C18            1.6887     2.2294    -0.0021 C.ar    
  19 C19            4.3225     2.7797    -0.0252 C.ar    
  20 C20            5.7773     3.0331    -0.0386 C.2     
  21 C21           -5.2968    -4.3763    -3.5340 C.3     
  22 C22            2.0793     3.5706     0.0009 C.ar    
  23 C23            3.4218     3.8538    -0.0108 C.ar    
  24 C24            6.7525     2.0851    -0.0535 C.2     
  25 C25            7.9838     2.7698    -0.0630 C.2     
  26 C26            7.7029     4.0878    -0.0535 C.2     
  27 H27           -2.4835    -4.2424    -0.8870 H       
  28 H28           -2.4665    -4.2520     0.8928 H       
  29 H29           -3.5246    -2.0095     0.9150 H       
  30 H30           -3.5416    -2.0000    -0.8649 H       
  31 H31           -0.8943    -2.4742    -0.0027 H       
  32 H32           -4.4611    -4.6604     2.1418 H       
  33 H33           -6.9541    -5.1347    -2.0828 H       
  34 H34           -6.7704    -5.5124     2.1608 H       
  35 H35           -8.0177    -5.7444     0.0519 H       
  36 H36            0.5123    -0.3556    -0.8948 H       
  37 H37            0.5293    -0.3651     0.8851 H       
  38 H38           -6.1940    -3.7608    -3.4683 H       
  39 H39           -4.7095    -4.0712    -4.4001 H       
  40 H40           -5.5814    -5.4233    -3.6385 H       
  41 H41            1.3451     4.3626     0.0125 H       
  42 H42            3.7743     4.8746    -0.0087 H       
  43 H43            6.6105     1.0145    -0.0574 H       
  44 H44            8.9669     2.3229    -0.0755 H       
  45 H45            8.4298     4.8865    -0.0577 H       
@<TRIPOS>BOND
   1    1   17 1
   2    1   18 1
   3    2   11 1
   4    2   21 1
   5    3   15 2
   6    4   20 1
   7    4   26 1
   8    5    9 1
   9    5   15 am
  10    5   31 1
  11    6    7 ar
  12    6   18 ar
  13    7   19 ar
  14    8    9 1
  15    8   10 1
  16    8   27 1
  17    8   28 1
  18    9   29 1
  19    9   30 1
  20   10   11 ar
  21   10   12 ar
  22   11   13 ar
  23   12   14 ar
  24   12   32 1
  25   13   16 ar
  26   13   33 1
  27   14   16 ar
  28   14   34 1
  29   15   17 1
  30   16   35 1
  31   17   36 1
  32   17   37 1
  33   18   22 ar
  34   19   20 1
  35   19   23 ar
  36   20   24 2
  37   21   38 1
  38   21   39 1
  39   21   40 1
  40   22   23 ar
  41   22   41 1
  42   23   42 1
  43   24   25 1
  44   24   43 1
  45   25   26 2
  46   25   44 1
  47   26   45 1

#	End of record

#	Name: 6624149
#	Creating user name:	landrgr1
#	Creation time:	28. 01. 2015 13:52

#	Modifying user name:	landrgr1
#	Modification time:	28. 01. 2015 13:52

#	Program:	corina 3.48 0006  22.01.2010

@<TRIPOS>MOLECULE
6624149
  31   33    0    0    0
SMALL
NO_CHARGES


@<TRIPOS>ATOM
   1 S1            -0.0225     1.8097     0.0120 S.3     
   2 S2             6.5320     4.6218    -0.0386 S.3     
   3 N3             3.8630     1.5337    -0.0270 N.ar    
   4 N4             2.6059     1.2728    -0.0160 N.ar    
   5 C5            -1.4117    -0.5257     0.0127 C.ar    
   6 C6             0.0021    -0.0041     0.0020 C.3     
   7 C7             4.3224     2.7797    -0.0252 C.ar    
   8 C8             5.7775     3.0330    -0.0387 C.2     
   9 C9            -2.0716    -0.7585    -1.1795 C.ar    
  10 C10           -2.0468    -0.7767     1.2146 C.ar    
  11 C11            1.6887     2.2294    -0.0021 C.ar    
  12 C12            3.4218     3.8537    -0.0108 C.ar    
  13 C13            2.0793     3.5706     0.0009 C.ar    
  14 C14           -3.3685    -1.2369    -1.1696 C.ar    
  15 C15           -3.3436    -1.2552     1.2245 C.ar    
  16 C16            6.7334     2.0818    -0.0534 C.2     
  17 C17           -4.0053    -1.4830     0.0323 C.ar    
  18 C18            8.0257     2.5636    -0.0645 C.2     
  19 C19            8.1335     3.8957    -0.0590 C.2     
  20 H20            0.5123    -0.3556    -0.8948 H       
  21 H21            0.5293    -0.3651     0.8851 H       
  22 H22           -1.5740    -0.5663    -2.1185 H       
  23 H23           -1.5295    -0.5993     2.1460 H       
  24 H24            3.7744     4.8746    -0.0087 H       
  25 H25            1.3451     4.3626     0.0118 H       
  26 H26           -3.8843    -1.4181    -2.1011 H       
  27 H27           -3.8396    -1.4516     2.1635 H       
  28 H28            6.5051     1.0263    -0.0559 H       
  29 H29           -5.0187    -1.8564     0.0400 H       
  30 H30            8.8871     1.9123    -0.0770 H       
  31 H31            9.0641     4.4437    -0.0665 H       
@<TRIPOS>BOND
   1    1    6 1
   2    1   11 1
   3    2    8 1
   4    2   19 1
   5    3    4 ar
   6    3    7 ar
   7    4   11 ar
   8    5    6 1
   9    5    9 ar
  10    5   10 ar
  11    6   20 1
  12    6   21 1
  13    7    8 1
  14    7   12 ar
  15    8   16 2
  16    9   14 ar
  17    9   22 1
  18   10   15 ar
  19   10   23 1
  20   11   13 ar
  21   12   13 ar
  22   12   24 1
  23   13   25 1
  24   14   17 ar
  25   14   26 1
  26   15   17 ar
  27   15   27 1
  28   16   18 1
  29   16   28 1
  30   17   29 1
  31   18   19 2
  32   18   30 1
  33   19   31 1

#	End of record

#	Name: 6622892
#	Creating user name:	landrgr1
#	Creation time:	28. 01. 2015 13:52

#	Modifying user name:	landrgr1
#	Modification time:	28. 01. 2015 13:52

#	Program:	corina 3.48 0006  22.01.2010

@<TRIPOS>MOLECULE
6622892
  30   31    0    0    0
SMALL
NO_CHARGES


@<TRIPOS>ATOM
   1 O1             0.4242     0.3049     2.0772 O.2     
   2 N2             0.2880     1.2307    -0.3729 N.pl3   
   3 N3             0.0428    -1.8402     1.6590 N.am    
   4 C4             0.0837    -0.2097    -0.2007 C.3     
   5 C5             0.0369    -2.1517     3.0231 C.ar    
   6 C6             0.1960    -0.5619     1.2602 C.2     
   7 C7             1.4868     1.8426    -0.5906 C.2     
   8 C8            -0.6900     2.1803    -0.3477 C.2     
   9 C9             0.0254    -2.7675     5.7206 C.ar    
  10 C10           -0.4908    -1.2520     3.9400 C.ar    
  11 C11            0.5536    -3.3635     3.4624 C.ar    
  12 C12           -0.4951    -1.5624     5.2858 C.ar    
  13 C13            0.5463    -3.6679     4.8095 C.ar    
  14 C14            1.2699     3.1693    -0.6965 C.2     
  15 C15           -0.1140     3.3840    -0.5420 C.2     
  16 C16            0.0191    -3.1029     7.1897 C.3     
  17 H17           -0.9068    -0.4823    -0.5651 H       
  18 H18            0.8409    -0.7541    -0.7649 H       
  19 H19           -0.0634    -2.5443     1.0003 H       
  20 H20            2.4448     1.3497    -0.6655 H       
  21 H21           -1.7442     1.9997    -0.1979 H       
  22 H22           -0.8971    -0.3105     3.6010 H       
  23 H23            0.9603    -4.0673     2.7513 H       
  24 H24           -0.9016    -0.8614     5.9997 H       
  25 H25            0.9524    -4.6081     5.1523 H       
  26 H26            2.0189     3.9276    -0.8706 H       
  27 H27           -0.6207     4.3372    -0.5759 H       
  28 H28           -0.9069    -3.6204     7.4403 H       
  29 H29            0.8685    -3.7463     7.4192 H       
  30 H30            0.0912    -2.1845     7.7724 H       
@<TRIPOS>BOND
   1    1    6 2
   2    2    4 1
   3    2    7 1
   4    2    8 1
   5    3    5 1
   6    3    6 am
   7    3   19 1
   8    4    6 1
   9    4   17 1
  10    4   18 1
  11    5   10 ar
  12    5   11 ar
  13    7   14 2
  14    7   20 1
  15    8   15 2
  16    8   21 1
  17    9   12 ar
  18    9   13 ar
  19    9   16 1
  20   10   12 ar
  21   10   22 1
  22   11   13 ar
  23   11   23 1
  24   12   24 1
  25   13   25 1
  26   14   15 1
  27   14   26 1
  28   15   27 1
  29   16   28 1
  30   16   29 1
  31   16   30 1

#	End of record

#	Name: 6621269
#	Creating user name:	landrgr1
#	Creation time:	28. 01. 2015 13:52

#	Modifying user name:	landrgr1
#	Modification time:	28. 01. 2015 13:52

#	Program:	corina 3.48 0006  22.01.2010

@<TRIPOS>MOLECULE
6621269
  31   32    0    0    0
SMALL
NO_CHARGES


@<TRIPOS>ATOM
   1 S1             0.1257     1.5569     1.8227 S.3     
   2 S2             3.8132    -1.6215     1.8521 S.2     
   3 O3            -2.2431    -0.4748     1.8142 O.3     
   4 O4            -0.9970    -2.1099     0.9658 O.2     
   5 N5             1.6102    -1.7705     0.3758 N.am    
   6 N6             3.0767    -3.5798     0.2159 N.am    
   7 C7             1.3153    -0.4957     0.8571 C.2     
   8 C8             0.0698    -0.1231     1.3072 C.2     
   9 C9             4.3086    -4.1689     0.5191 C.ar    
  10 C10            2.2431     0.5250     0.9315 C.2     
  11 C11            2.7586    -2.3775     0.7354 C.2     
  12 C12            1.7786     1.6783     1.4197 C.2     
  13 C13            4.7724    -4.1775     1.8282 C.ar    
  14 C14            5.0678    -4.7516    -0.4873 C.ar    
  15 C15           -1.0714    -0.9571     1.3491 C.2     
  16 C16            5.9892    -4.7600     2.1243 C.ar    
  17 C17            6.2837    -5.3325    -0.1845 C.ar    
  18 C18            6.7454    -5.3342     1.1190 C.ar    
  19 C19           -3.3546    -1.3727     1.8280 C.3     
  20 H20            0.9890    -2.2206    -0.2178 H       
  21 H21            3.2690     0.3996     0.6184 H       
  22 H22            2.4514    -4.0365    -0.3683 H       
  23 H23            2.3725     2.5719     1.5428 H       
  24 H24            4.1825    -3.7288     2.6137 H       
  25 H25            4.7077    -4.7509    -1.5054 H       
  26 H26            6.3506    -4.7666     3.1420 H       
  27 H27            6.8745    -5.7861    -0.9666 H       
  28 H28            7.6967    -5.7888     1.3531 H       
  29 H29           -3.1206    -2.2310     2.4579 H       
  30 H30           -4.2312    -0.8599     2.2239 H       
  31 H31           -3.5600    -1.7123     0.8128 H       
@<TRIPOS>BOND
   1    1    8 1
   2    1   12 1
   3    2   11 2
   4    3   15 1
   5    3   19 1
   6    4   15 2
   7    5    7 1
   8    5   11 am
   9    5   20 1
  10    6    9 1
  11    6   11 am
  12    6   22 1
  13    7    8 2
  14    7   10 1
  15    8   15 1
  16    9   13 ar
  17    9   14 ar
  18   10   12 2
  19   10   21 1
  20   12   23 1
  21   13   16 ar
  22   13   24 1
  23   14   17 ar
  24   14   25 1
  25   16   18 ar
  26   16   26 1
  27   17   18 ar
  28   17   27 1
  29   18   28 1
  30   19   29 1
  31   19   30 1
  32   19   31 1

#	End of record

#	Name: 6620761
#	Creating user name:	landrgr1
#	Creation time:	28. 01. 2015 13:52

#	Modifying user name:	landrgr1
#	Modification time:	28. 01. 2015 13:52

#	Program:	corina 3.48 0006  22.01.2010

@<TRIPOS>MOLECULE
6620761
  45   47    0    0    0
SMALL
NO_CHARGES


@<TRIPOS>ATOM
   1 S1            -0.0217     1.7518     0.0117 S.3     
   2 O2            -4.3612    -1.6766     2.1788 O.2     
   3 O3            -4.4445    -1.5899    -2.1082 O.2     
   4 O4             1.8438    -2.5363     1.1390 O.3     
   5 O5             1.8071    -2.4599    -1.0817 O.2     
   6 N6            -1.1023    -0.8003     0.0076 N.2     
   7 C7            -3.5054    -1.1507     0.0276 C.3     
   8 C8            -6.0112     0.5200     0.1104 C.3     
   9 C9            -5.1083     0.4127     1.3424 C.3     
  10 C10           -5.1573     0.4631    -1.1593 C.3     
  11 C11           -4.3285    -0.8810     1.2710 C.2     
  12 C12           -4.3763    -0.8318    -1.1707 C.2     
  13 C13           -2.2830    -0.2694     0.0215 C.2     
  14 C14            0.0021    -0.0041     0.0020 C.2     
  15 C15            1.3032    -0.4571    -0.0128 C.2     
  16 C16            2.2743     0.6172    -0.0163 C.2     
  17 C17            3.7380     0.3831    -0.0316 C.ar    
  18 C18            1.7308     1.8416    -0.0046 C.2     
  19 C19            1.6661    -1.8765    -0.0239 C.2     
  20 C20            4.5426     1.0429    -0.9595 C.ar    
  21 C21            4.3161    -0.4934     0.8857 C.ar    
  22 C22            5.9046     0.8210    -0.9689 C.ar    
  23 C23            5.6792    -0.7074     0.8667 C.ar    
  24 C24            6.4718    -0.0542    -0.0601 C.ar    
  25 C25            2.2023    -3.9407     1.0520 C.3     
  26 C26            2.3601    -4.5149     2.4613 C.3     
  27 H27           -3.2076    -2.1989     0.0007 H       
  28 H28           -6.7211    -0.3071     0.1076 H       
  29 H29           -6.5549     1.4642     0.1400 H       
  30 H30           -4.4166     1.2549     1.3620 H       
  31 H31           -5.7200     0.4205     2.2445 H       
  32 H32           -5.8038     0.5068    -2.0358 H       
  33 H33           -4.4662     1.3059    -1.1720 H       
  34 H34           -2.3919     0.8051     0.0286 H       
  35 H35            2.2962     2.7618    -0.0056 H       
  36 H36            4.1008     1.7261    -1.6697 H       
  37 H37            3.6983    -1.0036     1.6099 H       
  38 H38            6.5288     1.3313    -1.6875 H       
  39 H39            6.1282    -1.3861     1.5767 H       
  40 H40            7.5382    -0.2248    -0.0712 H       
  41 H41            1.4185    -4.4837     0.5240 H       
  42 H42            3.1429    -4.0427     0.5107 H       
  43 H43            1.4195    -4.4129     3.0027 H       
  44 H44            2.6292    -5.5692     2.3961 H       
  45 H45            3.1439    -3.9719     2.9893 H       
@<TRIPOS>BOND
   1    1   14 1
   2    1   18 1
   3    2   11 2
   4    3   12 2
   5    4   19 1
   6    4   25 1
   7    5   19 2
   8    6   13 2
   9    6   14 1
  10    7   11 1
  11    7   12 1
  12    7   13 1
  13    7   27 1
  14    8    9 1
  15    8   10 1
  16    8   28 1
  17    8   29 1
  18    9   11 1
  19    9   30 1
  20    9   31 1
  21   10   12 1
  22   10   32 1
  23   10   33 1
  24   13   34 1
  25   14   15 2
  26   15   16 1
  27   15   19 1
  28   16   17 1
  29   16   18 2
  30   17   20 ar
  31   17   21 ar
  32   18   35 1
  33   20   22 ar
  34   20   36 1
  35   21   23 ar
  36   21   37 1
  37   22   24 ar
  38   22   38 1
  39   23   24 ar
  40   23   39 1
  41   24   40 1
  42   25   26 1
  43   25   41 1
  44   25   42 1
  45   26   43 1
  46   26   44 1
  47   26   45 1

#	End of record

#	Name: 6620639
#	Creating user name:	landrgr1
#	Creation time:	28. 01. 2015 13:52

#	Modifying user name:	landrgr1
#	Modification time:	28. 01. 2015 13:52

#	Program:	corina 3.48 0006  22.01.2010

@<TRIPOS>MOLECULE
6620639
  36   37    0    0    0
SMALL
NO_CHARGES


@<TRIPOS>ATOM
   1 O1             0.2371     1.4748    -0.4772 O.3     
   2 O2             2.6195     0.3366     0.9114 O.2     
   3 O3            -3.0940    -1.3262     3.2695 O.3     
   4 O4            -4.0134    -0.9910     1.2745 O.2     
   5 N5             0.4797    -0.1510     1.2503 N.am    
   6 N6            -0.6037    -0.5500     2.0303 N.2     
   7 C7             0.0103     0.1099    -0.1196 C.3     
   8 C8            -1.5003    -0.1882    -0.0490 C.3     
   9 C9             0.7012    -0.8268    -1.1126 C.3     
  10 C10           -1.7251    -0.5954     1.3897 C.2     
  11 C11            2.1674    -0.4168    -1.2651 C.3     
  12 C12            1.7498    -0.0197     1.6818 C.2     
  13 C13           -3.0147    -0.9814     1.9679 C.2     
  14 C14            2.0846    -0.3088     3.0915 C.ar    
  15 C15            3.4192    -0.3613     3.4987 C.ar    
  16 C16            1.0678    -0.5250     4.0237 C.ar    
  17 C17            3.7248    -0.6312     4.8165 C.ar    
  18 C18            1.3875    -0.7940     5.3383 C.ar    
  19 C19            2.7123    -0.8498     5.7340 C.ar    
  20 C20           -4.4038    -1.6975     3.7744 C.3     
  21 H21           -2.0778     0.7048    -0.2883 H       
  22 H22           -1.7606    -1.0048    -0.7225 H       
  23 H23            0.6468    -1.8511    -0.7441 H       
  24 H24            0.2033    -0.7618    -2.0801 H       
  25 H25            2.2477     0.6692    -1.2186 H       
  26 H26            2.7540    -0.8593    -0.4600 H       
  27 H27            2.5450    -0.7683    -2.2253 H       
  28 H28            1.1689     1.7333    -0.4713 H       
  29 H29            4.2104    -0.1912     2.7835 H       
  30 H30            0.0334    -0.4815     3.7163 H       
  31 H31            4.7566    -0.6725     5.1328 H       
  32 H32            0.6021    -0.9611     6.0605 H       
  33 H33            2.9571    -1.0607     6.7645 H       
  34 H34           -4.3270    -1.9513     4.8316 H       
  35 H35           -5.0914    -0.8609     3.6506 H       
  36 H36           -4.7761    -2.5589     3.2200 H       
@<TRIPOS>BOND
   1    1    7 1
   2    1   28 1
   3    2   12 2
   4    3   13 1
   5    3   20 1
   6    4   13 2
   7    5    6 1
   8    5    7 1
   9    5   12 am
  10    6   10 2
  11    7    8 1
  12    7    9 1
  13    8   10 1
  14    8   21 1
  15    8   22 1
  16    9   11 1
  17    9   23 1
  18    9   24 1
  19   10   13 1
  20   11   25 1
  21   11   26 1
  22   11   27 1
  23   12   14 1
  24   14   15 ar
  25   14   16 ar
  26   15   17 ar
  27   15   29 1
  28   16   18 ar
  29   16   30 1
  30   17   19 ar
  31   17   31 1
  32   18   19 ar
  33   18   32 1
  34   19   33 1
  35   20   34 1
  36   20   35 1
  37   20   36 1

#	End of record

#	Name: 6620638
#	Creating user name:	landrgr1
#	Creation time:	28. 01. 2015 13:52

#	Modifying user name:	landrgr1
#	Modification time:	28. 01. 2015 13:52

#	Program:	corina 3.48 0006  22.01.2010

@<TRIPOS>MOLECULE
6620638
  51   53    0    0    0
SMALL
NO_CHARGES


@<TRIPOS>ATOM
   1 O1            -0.4680    -2.8953    -2.3524 O.2     
   2 O2            -0.0162     1.3442     0.0094 O.3     
   3 O3             1.0630    -0.5975    -0.0113 O.2     
   4 N4             1.1380    -4.2798    -1.6998 N.am    
   5 N5            -2.5244    -0.1985     0.0251 N.pl3   
   6 C6             1.4947    -4.5909    -3.0862 C.3     
   7 C7             2.8842    -5.0216    -3.1302 C.3     
   8 C8             0.5284    -5.6677    -3.6210 C.3     
   9 C9             3.3658    -5.3077    -4.5673 C.3     
  10 C10            0.5448    -5.6205    -5.1249 C.3     
  11 C11            2.8805    -6.6736    -4.9712 C.3     
  12 C12            1.5436    -6.6221    -5.7354 C.3     
  13 C13            0.1373    -3.4154    -1.4392 C.2     
  14 C14           -0.2296    -3.0953    -0.0130 C.3     
  15 C15           -1.3704    -2.1107     0.0033 C.2     
  16 C16           -2.7492    -2.4308     0.0145 C.ar    
  17 C17           -1.2599    -0.7558     0.0100 C.2     
  18 C18           -3.4544    -1.2110     0.0281 C.ar    
  19 C19           -2.8245     1.2353     0.0416 C.3     
  20 C20           -3.4561    -3.6402     0.0149 C.ar    
  21 C21           -4.8461    -1.2257     0.0415 C.ar    
  22 C22            0.0021    -0.0041     0.0020 C.2     
  23 C23           -4.8206    -3.6289     0.0285 C.ar    
  24 C24           -2.9404     1.7487    -1.3950 C.3     
  25 C25           -5.5181    -2.4277     0.0413 C.ar    
  26 H26            1.3853    -3.6896    -3.6893 H       
  27 H27            3.5096    -4.2409    -2.6971 H       
  28 H28            2.9918    -5.9283    -2.5348 H       
  29 H29            0.8527    -6.6516    -3.2820 H       
  30 H30           -0.4800    -5.4668    -3.2593 H       
  31 H31            2.9580    -4.5587    -5.2460 H       
  32 H32            4.4550    -5.2816    -4.6004 H       
  33 H33           -0.4545    -5.8485    -5.4958 H       
  34 H34            0.8157    -4.6138    -5.4432 H       
  35 H35            3.6323    -7.1412    -5.6069 H       
  36 H36            2.7515    -7.2811    -4.0755 H       
  37 H37            1.0952    -7.6155    -5.7265 H       
  38 H38            1.7403    -6.3368    -6.7689 H       
  39 H39            1.6221    -4.6958    -0.9694 H       
  40 H40           -0.5312    -4.0094     0.4985 H       
  41 H41            0.6317    -2.6619     0.4952 H       
  42 H42           -3.7659     1.4035     0.5646 H       
  43 H43           -2.0237     1.7683     0.5543 H       
  44 H44           -2.9225    -4.5791     0.0042 H       
  45 H45           -5.3975    -0.2971     0.0523 H       
  46 H46           -5.3634    -4.5626     0.0284 H       
  47 H47           -3.7412     1.2158    -1.9078 H       
  48 H48           -3.1637     2.8155    -1.3828 H       
  49 H49           -1.9990     1.5805    -1.9181 H       
  50 H50           -6.5980    -2.4366     0.0517 H       
  51 H51            0.8393     1.7949     0.0037 H       
@<TRIPOS>BOND
   1    1   13 2
   2    2   22 1
   3    2   51 1
   4    3   22 2
   5    4    6 1
   6    4   13 am
   7    4   39 1
   8    5   17 1
   9    5   18 1
  10    5   19 1
  11    6    7 1
  12    6    8 1
  13    6   26 1
  14    7    9 1
  15    7   27 1
  16    7   28 1
  17    8   10 1
  18    8   29 1
  19    8   30 1
  20    9   11 1
  21    9   31 1
  22    9   32 1
  23   10   12 1
  24   10   33 1
  25   10   34 1
  26   11   12 1
  27   11   35 1
  28   11   36 1
  29   12   37 1
  30   12   38 1
  31   13   14 1
  32   14   15 1
  33   14   40 1
  34   14   41 1
  35   15   16 1
  36   15   17 2
  37   16   18 ar
  38   16   20 ar
  39   17   22 1
  40   18   21 ar
  41   19   24 1
  42   19   42 1
  43   19   43 1
  44   20   23 ar
  45   20   44 1
  46   21   25 ar
  47   21   45 1
  48   23   25 ar
  49   23   46 1
  50   24   47 1
  51   24   48 1
  52   24   49 1
  53   25   50 1

#	End of record

#	Name: 6620238
#	Creating user name:	landrgr1
#	Creation time:	28. 01. 2015 13:52

#	Modifying user name:	landrgr1
#	Modification time:	28. 01. 2015 13:52

#	Program:	corina 3.48 0006  22.01.2010

@<TRIPOS>MOLECULE
6620238
  65   68    0    0    0
SMALL
NO_CHARGES


@<TRIPOS>ATOM
   1 O1            -1.3918     6.0617     3.6361 O.2     
   2 O2            -4.4975     7.4312     3.5613 O.2     
   3 N3            -1.5778     1.3636     1.7335 N.3     
   4 N4             0.2642    -0.4402     0.5257 N.3     
   5 N5            -2.4379     4.1523     4.0627 N.am    
   6 N6            -2.4100     7.5255     5.5594 N.pl3   
   7 C7            -1.8170    -0.0860     1.7653 C.3     
   8 C8            -0.1378     1.6567     1.7237 C.3     
   9 C9            -1.1758    -0.7333     0.5355 C.3     
  10 C10            0.5035     1.0094     0.4940 C.3     
  11 C11           -2.2434     2.0318     2.8597 C.3     
  12 C12            0.8971    -1.0755    -0.5451 C.ar    
  13 C13           -1.7741     3.4859     2.9396 C.3     
  14 C14            0.9906    -2.4614    -0.5757 C.ar    
  15 C15            1.4293    -0.3236    -1.5845 C.ar    
  16 C16            1.6165    -3.0863    -1.6361 C.ar    
  17 C17            0.4100    -3.2816     0.5473 C.3     
  18 C18            2.0541    -0.9552    -2.6422 C.ar    
  19 C19            2.1504    -2.3343    -2.6667 C.ar    
  20 C20           -2.1765     5.4477     4.3276 C.2     
  21 C21            1.7184    -4.5895    -1.6701 C.3     
  22 C22           -2.8593     6.1332     5.4829 C.3     
  23 C23           -2.9392     8.5804     4.8500 C.2     
  24 C24           -1.4080     7.9908     6.3443 C.2     
  25 C25           -2.2376     9.7154     5.2082 C.2     
  26 C26           -1.2798     9.3261     6.1477 C.2     
  27 C27           -4.0438     8.5116     3.8908 C.2     
  28 C28           -4.6081     9.7549     3.3224 C.ar    
  29 C29           -5.1525     9.7541     2.0368 C.ar    
  30 C30           -4.6039    10.9331     4.0713 C.ar    
  31 C31           -5.6776    10.9171     1.5129 C.ar    
  32 C32           -5.1322    12.0892     3.5353 C.ar    
  33 C33           -5.6651    12.0828     2.2583 C.ar    
  34 H34           -1.3771    -0.5075     2.6691 H       
  35 H35           -2.8900    -0.2777     1.7592 H       
  36 H36            0.0135     2.7355     1.6874 H       
  37 H37            0.3212     1.2550     2.6271 H       
  38 H38           -1.6348    -0.3316    -0.3678 H       
  39 H39           -1.3271    -1.8121     0.5719 H       
  40 H40            1.5765     1.2011     0.5000 H       
  41 H41            0.0636     1.4309    -0.4099 H       
  42 H42           -3.3229     2.0061     2.7109 H       
  43 H43           -1.9921     1.5175     3.7873 H       
  44 H44           -2.0254     4.0002     2.0120 H       
  45 H45           -0.6946     3.5116     3.0884 H       
  46 H46            1.3544     0.7536    -1.5660 H       
  47 H47           -3.0655     3.6613     4.6158 H       
  48 H48           -0.5893    -3.6188     0.2720 H       
  49 H49            1.0471    -4.1464     0.7326 H       
  50 H50            0.3523    -2.6729     1.4497 H       
  51 H51            2.4678    -0.3711    -3.4510 H       
  52 H52            2.6400    -2.8255    -3.4945 H       
  53 H53            0.8465    -5.0013    -2.1784 H       
  54 H54            2.6221    -4.8804    -2.2056 H       
  55 H55            1.7602    -4.9740    -0.6511 H       
  56 H56           -2.6081     5.6189     6.4105 H       
  57 H57           -3.9388     6.1075     5.3342 H       
  58 H58           -0.8091     7.3949     7.0171 H       
  59 H59           -2.4003    10.7154     4.8340 H       
  60 H60           -0.5657     9.9745     6.6335 H       
  61 H61           -5.1622     8.8451     1.4537 H       
  62 H62           -4.1882    10.9394     5.0681 H       
  63 H63           -6.0990    10.9179     0.5185 H       
  64 H64           -5.1295    13.0013     4.1135 H       
  65 H65           -6.0771    12.9908     1.8433 H       
@<TRIPOS>BOND
   1    1   20 2
   2    2   27 2
   3    3    7 1
   4    3    8 1
   5    3   11 1
   6    4    9 1
   7    4   10 1
   8    4   12 1
   9    5   13 1
  10    5   20 am
  11    5   47 1
  12    6   22 1
  13    6   23 1
  14    6   24 1
  15    7    9 1
  16    7   34 1
  17    7   35 1
  18    8   10 1
  19    8   36 1
  20    8   37 1
  21    9   38 1
  22    9   39 1
  23   10   40 1
  24   10   41 1
  25   11   13 1
  26   11   42 1
  27   11   43 1
  28   12   14 ar
  29   12   15 ar
  30   13   44 1
  31   13   45 1
  32   14   16 ar
  33   14   17 1
  34   15   18 ar
  35   15   46 1
  36   16   19 ar
  37   16   21 1
  38   17   48 1
  39   17   49 1
  40   17   50 1
  41   18   19 ar
  42   18   51 1
  43   19   52 1
  44   20   22 1
  45   21   53 1
  46   21   54 1
  47   21   55 1
  48   22   56 1
  49   22   57 1
  50   23   25 2
  51   23   27 1
  52   24   26 2
  53   24   58 1
  54   25   26 1
  55   25   59 1
  56   26   60 1
  57   27   28 1
  58   28   29 ar
  59   28   30 ar
  60   29   31 ar
  61   29   61 1
  62   30   32 ar
  63   30   62 1
  64   31   33 ar
  65   31   63 1
  66   32   33 ar
  67   32   64 1
  68   33   65 1

#	End of record

#	Name: 6620111
#	Creating user name:	landrgr1
#	Creation time:	28. 01. 2015 13:52

#	Modifying user name:	landrgr1
#	Modification time:	28. 01. 2015 13:52

#	Program:	corina 3.48 0006  22.01.2010

@<TRIPOS>MOLECULE
6620111
  51   53    0    0    0
SMALL
NO_CHARGES


@<TRIPOS>ATOM
   1 O1            -0.3473     1.6444    -0.0178 O.3     
   2 O2            -1.4051    -6.4610    -0.4015 O.3     
   3 O3            -1.9127    -5.3037    -2.2288 O.2     
   4 O4            -0.1191    -1.4242    -2.4879 O.2     
   5 O5             1.8500     1.7756     0.2667 O.2     
   6 N6            -1.5388    -1.8729     0.1522 N.pl3   
   7 N7            -2.0612    -2.4498    -2.1589 N.am    
   8 N8            -1.2177    -2.5843     1.3132 N.2     
   9 C9            -1.6443    -0.4158     0.0430 C.3     
  10 C10           -1.7290    -2.7535    -0.8504 C.2     
  11 C11           -1.5277    -4.0262    -0.3221 C.2     
  12 C12           -0.2516     0.2067     0.1611 C.3     
  13 C13           -1.2133    -3.8599     1.0472 C.2     
  14 C14           -1.6282    -5.2982    -1.0466 C.2     
  15 C15           -1.2142    -1.7279    -2.9190 C.2     
  16 C16           -1.6169    -1.3056    -4.2769 C.ar    
  17 C17            0.7991     2.3477     0.0574 C.2     
  18 C18           -0.7419    -0.5578    -5.0669 C.ar    
  19 C19           -2.8717    -1.6576    -4.7773 C.ar    
  20 C20            0.7783     3.8148    -0.1146 C.ar    
  21 C21           -1.5220    -7.6803    -1.1812 C.3     
  22 C22           -1.1241    -0.1668    -6.3334 C.ar    
  23 C23           -3.2413    -1.2601    -6.0455 C.ar    
  24 C24            1.9648     4.5468    -0.0372 C.ar    
  25 C25           -0.4271     4.4750    -0.3609 C.ar    
  26 C26           -2.3716    -0.5138    -6.8209 C.ar    
  27 C27           -1.2360    -8.8876    -0.2857 C.3     
  28 C28            1.9382     5.9165    -0.1987 C.ar    
  29 C29           -0.4393     5.8451    -0.5205 C.ar    
  30 C30            0.7393     6.5651    -0.4365 C.ar    
  31 H31           -2.0785    -0.1543    -0.9220 H       
  32 H32           -2.2807    -0.0367     0.8426 H       
  33 H33            0.3998    -0.2123    -0.6059 H       
  34 H34            0.1609    -0.0103     1.1464 H       
  35 H35           -0.9993    -4.6526     1.7488 H       
  36 H36           -2.9037    -2.7566    -2.5291 H       
  37 H37            0.2319    -0.2857    -4.6872 H       
  38 H38           -3.5514    -2.2401    -4.1731 H       
  39 H39           -2.5315    -7.7583    -1.5846 H       
  40 H40           -0.8039    -7.6577    -2.0008 H       
  41 H41           -0.4482     0.4118    -6.9456 H       
  42 H42           -4.2116    -1.5320    -6.4340 H       
  43 H43            2.9012     4.0419     0.1490 H       
  44 H44           -1.3477     3.9142    -0.4267 H       
  45 H45           -2.6662    -0.2045    -7.8129 H       
  46 H46           -1.9541    -8.9102     0.5340 H       
  47 H47           -1.3237    -9.8029    -0.8710 H       
  48 H48           -0.2264    -8.8096     0.1177 H       
  49 H49            2.8552     6.4840    -0.1392 H       
  50 H50           -1.3710     6.3570    -0.7110 H       
  51 H51            0.7240     7.6377    -0.5618 H       
@<TRIPOS>BOND
   1    1   12 1
   2    1   17 1
   3    2   14 1
   4    2   21 1
   5    3   14 2
   6    4   15 2
   7    5   17 2
   8    6    8 1
   9    6    9 1
  10    6   10 1
  11    7   10 1
  12    7   15 am
  13    7   36 1
  14    8   13 2
  15    9   12 1
  16    9   31 1
  17    9   32 1
  18   10   11 2
  19   11   13 1
  20   11   14 1
  21   12   33 1
  22   12   34 1
  23   13   35 1
  24   15   16 1
  25   16   18 ar
  26   16   19 ar
  27   17   20 1
  28   18   22 ar
  29   18   37 1
  30   19   23 ar
  31   19   38 1
  32   20   24 ar
  33   20   25 ar
  34   21   27 1
  35   21   39 1
  36   21   40 1
  37   22   26 ar
  38   22   41 1
  39   23   26 ar
  40   23   42 1
  41   24   28 ar
  42   24   43 1
  43   25   29 ar
  44   25   44 1
  45   26   45 1
  46   27   46 1
  47   27   47 1
  48   27   48 1
  49   28   30 ar
  50   28   49 1
  51   29   30 ar
  52   29   50 1
  53   30   51 1

#	End of record

#	Name: 6620095
#	Creating user name:	landrgr1
#	Creation time:	28. 01. 2015 13:52

#	Modifying user name:	landrgr1
#	Modification time:	28. 01. 2015 13:52

#	Program:	corina 3.48 0006  22.01.2010

@<TRIPOS>MOLECULE
6620095
  53   56    0    0    0
SMALL
NO_CHARGES


@<TRIPOS>ATOM
   1 O1             3.4617    -0.3014    -0.3715 O.3     
   2 O2             3.2756    -2.4904    -0.6106 O.2     
   3 O3             0.3318    -4.4154    -2.3621 O.2     
   4 N4            -0.7349    -2.7681     0.2425 N.3     
   5 N5            -2.3139    -6.6053     0.4824 N.ar    
   6 C6             1.2771    -1.3945    -0.0132 C.3     
   7 C7             0.5427    -0.5091    -1.0237 C.3     
   8 C8             0.6996    -2.8106    -0.0686 C.3     
   9 C9            -0.9553    -0.5207    -0.7067 C.3     
  10 C10           -1.4681    -1.9621    -0.7420 C.3     
  11 C11           -1.2588    -4.0379     0.3288 C.ar    
  12 C12            2.7446    -1.4359    -0.3536 C.2     
  13 C13           -1.7373    -4.5504     1.5590 C.ar    
  14 C14           -1.3378    -4.8690    -0.8005 C.ar    
  15 C15           -2.2672    -5.8620     1.5977 C.ar    
  16 C16           -1.8801    -6.1588    -0.6676 C.ar    
  17 C17           -1.6937    -3.7833     2.7308 C.ar    
  18 C18           -0.8575    -4.3953    -2.1075 C.2     
  19 C19           -2.7412    -6.3689     2.8177 C.ar    
  20 C20            4.8695    -0.4166    -0.7078 C.3     
  21 C21           -2.1636    -4.3082     3.8985 C.ar    
  22 C22           -1.8201    -3.8947    -3.1117 C.ar    
  23 C23           -2.6853    -5.5973     3.9399 C.ar    
  24 C24            5.5163     0.9696    -0.6772 C.3     
  25 C25           -1.3605    -3.3293    -4.3028 C.ar    
  26 C26           -3.1930    -3.9905    -2.8758 C.ar    
  27 C27           -2.2642    -2.8646    -5.2356 C.ar    
  28 C28           -4.0857    -3.5219    -3.8172 C.ar    
  29 C29           -3.6233    -2.9575    -4.9930 C.ar    
  30 H30            1.1470    -0.9874     0.9895 H       
  31 H31            0.9213     0.5109    -0.9572 H       
  32 H32            0.7049    -0.8938    -2.0306 H       
  33 H33            1.2107    -3.4400     0.6599 H       
  34 H34            0.8425    -3.2223    -1.0677 H       
  35 H35           -1.1206    -0.0998     0.2851 H       
  36 H36           -1.4888     0.0737    -1.4484 H       
  37 H37           -1.3151    -2.3777    -1.7379 H       
  38 H38           -2.5314    -1.9753    -0.5026 H       
  39 H39           -1.9399    -6.7970    -1.5368 H       
  40 H40           -1.2898    -2.7819     2.7095 H       
  41 H41           -3.1495    -7.3675     2.8671 H       
  42 H42            5.3641    -1.0644     0.0159 H       
  43 H43            4.9709    -0.8429    -1.7059 H       
  44 H44           -2.1295    -3.7168     4.8015 H       
  45 H45           -3.0519    -5.9927     4.8757 H       
  46 H46            6.5731     0.8831    -0.9297 H       
  47 H47            5.0217     1.6174    -1.4009 H       
  48 H48            5.4149     1.3959     0.3209 H       
  49 H49           -0.3000    -3.2556    -4.4931 H       
  50 H50           -3.5551    -4.4308    -1.9585 H       
  51 H51           -1.9101    -2.4271    -6.1573 H       
  52 H52           -5.1478    -3.5954    -3.6360 H       
  53 H53           -4.3266    -2.5918    -5.7266 H       
@<TRIPOS>BOND
   1    1   12 1
   2    1   20 1
   3    2   12 2
   4    3   18 2
   5    4    8 1
   6    4   10 1
   7    4   11 1
   8    5   15 ar
   9    5   16 ar
  10    6    7 1
  11    6    8 1
  12    6   12 1
  13    6   30 1
  14    7    9 1
  15    7   31 1
  16    7   32 1
  17    8   33 1
  18    8   34 1
  19    9   10 1
  20    9   35 1
  21    9   36 1
  22   10   37 1
  23   10   38 1
  24   11   13 ar
  25   11   14 ar
  26   13   15 ar
  27   13   17 ar
  28   14   16 ar
  29   14   18 1
  30   15   19 ar
  31   16   39 1
  32   17   21 ar
  33   17   40 1
  34   18   22 1
  35   19   23 ar
  36   19   41 1
  37   20   24 1
  38   20   42 1
  39   20   43 1
  40   21   23 ar
  41   21   44 1
  42   22   25 ar
  43   22   26 ar
  44   23   45 1
  45   24   46 1
  46   24   47 1
  47   24   48 1
  48   25   27 ar
  49   25   49 1
  50   26   28 ar
  51   26   50 1
  52   27   29 ar
  53   27   51 1
  54   28   29 ar
  55   28   52 1
  56   29   53 1

#	End of record

#	Name: 6619983
#	Creating user name:	landrgr1
#	Creation time:	28. 01. 2015 13:52

#	Modifying user name:	landrgr1
#	Modification time:	28. 01. 2015 13:52

#	Program:	corina 3.48 0006  22.01.2010

@<TRIPOS>MOLECULE
6619983
  36   38    0    0    0
SMALL
NO_CHARGES


@<TRIPOS>ATOM
   1 S1            -0.0225     1.8097     0.0120 S.3     
   2 O2            -1.6274    -1.7793    -0.5353 O.3     
   3 O3            -2.3397     0.1866     0.1799 O.2     
   4 N4             3.9519     1.5871    -0.0276 N.pl3   
   5 N5             2.5912     1.2749    -0.0158 N.2     
   6 N6             6.1117     1.6802    -0.0483 N.2     
   7 N7             5.6836     2.8939    -0.0429 N.2     
   8 C8             5.0926     0.8405    -0.0426 C.2     
   9 C9             4.3584     2.8979    -0.0315 C.2     
  10 C10            5.1735    -0.6350    -0.0509 C.ar    
  11 C11            0.0021    -0.0041     0.0020 C.3     
  12 C12            1.6887     2.2294    -0.0021 C.2     
  13 C13            3.3905     3.9199    -0.0231 C.2     
  14 C14            2.0732     3.5848     0.0010 C.2     
  15 C15            6.3731    -1.2696    -0.3784 C.ar    
  16 C16            4.0522    -1.4005     0.2742 C.ar    
  17 C17            0.6310    -0.5127     1.3007 C.3     
  18 C18           -1.4075    -0.5249    -0.1112 C.2     
  19 C19            6.4417    -2.6473    -0.3843 C.ar    
  20 C20            4.1346    -2.7775     0.2645 C.ar    
  21 C21            5.3250    -3.4001    -0.0671 C.ar    
  22 C22           -3.0104    -2.2137    -0.6198 C.3     
  23 H23            0.5883    -0.3548    -0.8473 H       
  24 H24            3.6908     4.9573    -0.0260 H       
  25 H25            1.3201     4.3588     0.0120 H       
  26 H26            7.2453    -0.6832    -0.6269 H       
  27 H27            3.1225    -0.9157     0.5332 H       
  28 H28            0.6458    -1.6026     1.2947 H       
  29 H29            1.6506    -0.1360     1.3826 H       
  30 H30            0.0448    -0.1620     2.1500 H       
  31 H31            7.3691    -3.1395    -0.6375 H       
  32 H32            3.2679    -3.3709     0.5158 H       
  33 H33            5.3839    -4.4785    -0.0739 H       
  34 H34           -3.5514    -1.5707    -1.3140 H       
  35 H35           -3.0467    -3.2436    -0.9749 H       
  36 H36           -3.4712    -2.1529     0.3662 H       
@<TRIPOS>BOND
   1    1   11 1
   2    1   12 1
   3    2   18 1
   4    2   22 1
   5    3   18 2
   6    4    5 1
   7    4    8 1
   8    4    9 1
   9    5   12 2
  10    6    7 1
  11    6    8 2
  12    7    9 2
  13    8   10 1
  14    9   13 1
  15   10   15 ar
  16   10   16 ar
  17   11   17 1
  18   11   18 1
  19   11   23 1
  20   12   14 1
  21   13   14 2
  22   13   24 1
  23   14   25 1
  24   15   19 ar
  25   15   26 1
  26   16   20 ar
  27   16   27 1
  28   17   28 1
  29   17   29 1
  30   17   30 1
  31   19   21 ar
  32   19   31 1
  33   20   21 ar
  34   20   32 1
  35   21   33 1
  36   22   34 1
  37   22   35 1
  38   22   36 1

#	End of record

#	Name: 6619646
#	Creating user name:	landrgr1
#	Creation time:	28. 01. 2015 13:52

#	Modifying user name:	landrgr1
#	Modification time:	28. 01. 2015 13:52

#	Program:	corina 3.48 0006  22.01.2010

@<TRIPOS>MOLECULE
6619646
  52   55    0    0    0
SMALL
NO_CHARGES


@<TRIPOS>ATOM
   1 Cl1           -2.8098    12.5883    -0.8804 Cl      
   2 O2            -3.0692     5.6145    -3.9243 O.2     
   3 N3            -0.0179     1.4702     0.0101 N.3     
   4 N4            -4.3776    10.4449    -4.4969 N.ar    
   5 N5            -1.9668     5.4839    -2.0009 N.am    
   6 C6             0.0021    -0.0041     0.0020 C.3     
   7 C7             1.3770     1.9600    -0.0006 C.3     
   8 C8             1.4820    -0.4413     0.0110 C.3     
   9 C9             2.2089     0.7978     0.5967 C.3     
  10 C10           -0.7682     1.9929    -1.1396 C.3     
  11 C11           -0.9813     3.4982    -0.9679 C.3     
  12 C12           -4.6786    14.5739    -4.3860 C.3     
  13 C13           -5.8434    13.7941    -5.0069 C.3     
  14 C14           -4.3053    13.9080    -3.0631 C.3     
  15 C15           -5.3215    12.4387    -5.4774 C.3     
  16 C16           -4.0992    12.4285    -3.2551 C.ar    
  17 C17           -4.5725    11.7438    -4.3673 C.ar    
  18 C18           -1.7627     4.0425    -2.1653 C.3     
  19 C19           -3.4138    11.7518    -2.2765 C.ar    
  20 C20           -3.2099    10.3680    -2.4265 C.ar    
  21 C21           -3.7224     9.7285    -3.5823 C.ar    
  22 C22           -2.8415     7.6364    -2.7745 C.ar    
  23 C23           -3.5291     8.3466    -3.7433 C.ar    
  24 C24           -2.5142     9.6213    -1.4612 C.ar    
  25 C25           -2.6355     6.1814    -2.9405 C.2     
  26 C26           -2.3368     8.2857    -1.6346 C.ar    
  27 H27           -0.5030    -0.3866     0.8889 H       
  28 H28           -0.4892    -0.3766    -0.8968 H       
  29 H29            1.6974     2.1707    -1.0209 H       
  30 H30            1.4709     2.8516     0.6194 H       
  31 H31            1.6232    -1.3104     0.6535 H       
  32 H32            1.8287    -0.6487    -1.0014 H       
  33 H33            3.2429     0.8417     0.2547 H       
  34 H34            2.1590     0.8012     1.6856 H       
  35 H35           -0.2061     1.8076    -2.0549 H       
  36 H36           -1.7352     1.4935    -1.1997 H       
  37 H37           -1.5434     3.6835    -0.0526 H       
  38 H38           -0.0143     3.9975    -0.9077 H       
  39 H39           -3.8228    14.5550    -5.0609 H       
  40 H40           -4.9818    15.6052    -4.2054 H       
  41 H41           -6.6246    13.6470    -4.2611 H       
  42 H42           -6.2433    14.3477    -5.8564 H       
  43 H43           -3.3854    14.3529    -2.6836 H       
  44 H44           -5.1060    14.0686    -2.3412 H       
  45 H45           -6.1620    11.8178    -5.7874 H       
  46 H46           -4.6524    12.5858    -6.3252 H       
  47 H47           -2.7298     3.5432    -2.2255 H       
  48 H48           -1.2006     3.8572    -3.0806 H       
  49 H49           -1.6206     5.9363    -1.2158 H       
  50 H50           -3.9146     7.8417    -4.6167 H       
  51 H51           -2.1219    10.1085    -0.5808 H       
  52 H52           -1.8018     7.7166    -0.8886 H       
@<TRIPOS>BOND
   1    1   19 1
   2    2   25 2
   3    3    6 1
   4    3    7 1
   5    3   10 1
   6    4   17 ar
   7    4   21 ar
   8    5   18 1
   9    5   25 am
  10    5   49 1
  11    6    8 1
  12    6   27 1
  13    6   28 1
  14    7    9 1
  15    7   29 1
  16    7   30 1
  17    8    9 1
  18    8   31 1
  19    8   32 1
  20    9   33 1
  21    9   34 1
  22   10   11 1
  23   10   35 1
  24   10   36 1
  25   11   18 1
  26   11   37 1
  27   11   38 1
  28   12   13 1
  29   12   14 1
  30   12   39 1
  31   12   40 1
  32   13   15 1
  33   13   41 1
  34   13   42 1
  35   14   16 1
  36   14   43 1
  37   14   44 1
  38   15   17 1
  39   15   45 1
  40   15   46 1
  41   16   17 ar
  42   16   19 ar
  43   18   47 1
  44   18   48 1
  45   19   20 ar
  46   20   21 ar
  47   20   24 ar
  48   21   23 ar
  49   22   23 ar
  50   22   25 1
  51   22   26 ar
  52   23   50 1
  53   24   26 ar
  54   24   51 1
  55   26   52 1

#	End of record

#	Name: 6618962
#	Creating user name:	landrgr1
#	Creation time:	28. 01. 2015 13:52

#	Modifying user name:	landrgr1
#	Modification time:	28. 01. 2015 13:52

#	Program:	corina 3.48 0006  22.01.2010

@<TRIPOS>MOLECULE
6618962
  43   46    0    0    0
SMALL
NO_CHARGES


@<TRIPOS>ATOM
   1 O1            -0.9743    -2.2753     2.2278 O.2     
   2 O2            -0.0161     1.3381     0.0094 O.3     
   3 O3             1.0565    -0.5939    -0.0112 O.2     
   4 N4            -0.3929    -5.1852     2.1524 N.pl3   
   5 N5            -1.0054    -2.2118    -0.0002 N.am    
   6 N6            -0.8819    -2.8812    -1.2213 N.2     
   7 C7            -0.5869    -4.2579     1.1521 C.2     
   8 C8            -0.1483    -6.4291     1.6097 C.ar    
   9 C9            -0.4687    -4.8993    -0.0801 C.2     
  10 C10           -0.1834    -6.3115     0.2095 C.ar    
  11 C11           -0.4343    -4.8908     3.5869 C.3     
  12 C12           -0.8643    -2.8701     1.1678 C.2     
  13 C13            0.1051    -7.6725     2.1828 C.ar    
  14 C14            0.0347    -7.4334    -0.5899 C.ar    
  15 C15           -0.6268    -4.1588    -1.2707 C.2     
  16 C16           -1.8425    -5.0642     4.0948 C.ar    
  17 C17            0.3189    -8.7708     1.3797 C.ar    
  18 C18            0.2840    -8.6534    -0.0024 C.ar    
  19 C19           -1.2926    -0.7753     0.0102 C.3     
  20 C20           -2.2593    -6.2934     4.5704 C.ar    
  21 C21           -2.7157    -3.9925     4.0905 C.ar    
  22 C22           -3.5510    -6.4525     5.0363 C.ar    
  23 C23           -4.0073    -4.1515     4.5564 C.ar    
  24 C24            0.0021    -0.0041     0.0020 C.2     
  25 C25           -4.4258    -5.3821     5.0271 C.ar    
  26 C26            1.2685     2.0148     0.0008 C.3     
  27 H27            0.2298    -5.5733     4.1172 H       
  28 H28           -0.1107    -3.8639     3.7565 H       
  29 H29            0.1347    -7.7757     3.2574 H       
  30 H30            0.0078    -7.3455    -1.6660 H       
  31 H31           -0.5366    -4.6525    -2.2270 H       
  32 H32            0.5157    -9.7325     1.8300 H       
  33 H33            0.4527    -9.5230    -0.6202 H       
  34 H34           -1.8762    -0.5150    -0.8728 H       
  35 H35           -1.8592    -0.5245     0.9070 H       
  36 H36           -1.5758    -7.1296     4.5776 H       
  37 H37           -2.3886    -3.0309     3.7234 H       
  38 H38           -3.8768    -7.4130     5.4072 H       
  39 H39           -4.6894    -3.3142     4.5534 H       
  40 H40           -5.4351    -5.5065     5.3908 H       
  41 H41            1.1110     3.0934     0.0081 H       
  42 H42            1.8379     1.7248     0.8838 H       
  43 H43            1.8209     1.7343    -0.8960 H       
@<TRIPOS>BOND
   1    1   12 2
   2    2   24 1
   3    2   26 1
   4    3   24 2
   5    4    7 1
   6    4    8 1
   7    4   11 1
   8    5    6 1
   9    5   12 am
  10    5   19 1
  11    6   15 2
  12    7    9 2
  13    7   12 1
  14    8   10 ar
  15    8   13 ar
  16    9   10 1
  17    9   15 1
  18   10   14 ar
  19   11   16 1
  20   11   27 1
  21   11   28 1
  22   13   17 ar
  23   13   29 1
  24   14   18 ar
  25   14   30 1
  26   15   31 1
  27   16   20 ar
  28   16   21 ar
  29   17   18 ar
  30   17   32 1
  31   18   33 1
  32   19   24 1
  33   19   34 1
  34   19   35 1
  35   20   22 ar
  36   20   36 1
  37   21   23 ar
  38   21   37 1
  39   22   25 ar
  40   22   38 1
  41   23   25 ar
  42   23   39 1
  43   25   40 1
  44   26   41 1
  45   26   42 1
  46   26   43 1

#	End of record

#	Name: 6618900
#	Creating user name:	landrgr1
#	Creation time:	28. 01. 2015 13:52

#	Modifying user name:	landrgr1
#	Modification time:	28. 01. 2015 13:52

#	Program:	corina 3.48 0006  22.01.2010

@<TRIPOS>MOLECULE
6618900
  34   37    0    0    0
SMALL
NO_CHARGES


@<TRIPOS>ATOM
   1 S1            -0.0218     1.7546     0.0117 S.3     
   2 O2            -4.8830    -3.5218    -1.3082 O.2     
   3 N3            -4.5134    -3.2934     0.8893 N.am    
   4 N4            -1.5998    -1.1843     1.3913 N.pl3   
   5 N5            -5.9419    -4.3486     2.4414 N.2     
   6 N6            -3.3973    -2.4802     0.6544 N.2     
   7 C7            -4.8940    -3.5851     2.1707 C.2     
   8 C8            -6.3712    -4.6264     0.1183 C.ar    
   9 C9            -6.6968    -4.8852     1.4734 C.ar    
  10 C10           -5.2104    -3.7799    -0.1636 C.2     
  11 C11           -2.7037    -1.9890     1.6509 C.2     
  12 C12           -1.2174    -0.8895     0.0081 C.3     
  13 C13           -4.1415    -3.0521     3.2471 C.2     
  14 C14           -3.0662    -2.2693     2.9860 C.2     
  15 C15           -7.1486    -5.1785    -0.9010 C.ar    
  16 C16           -7.8045    -5.6925     1.7661 C.ar    
  17 C17            0.0021    -0.0041     0.0020 C.2     
  18 C18           -8.2188    -5.9652    -0.5806 C.ar    
  19 C19           -8.5448    -6.2179     0.7475 C.ar    
  20 C20            1.2646    -0.4342    -0.0123 C.2     
  21 C21            2.2216     0.5659    -0.0161 C.2     
  22 C22            1.7362     1.8083    -0.0048 C.2     
  23 H23           -0.9932    -1.8202    -0.5131 H       
  24 H24           -2.0389    -0.3799    -0.4953 H       
  25 H25           -4.4229    -3.2677     4.2673 H       
  26 H26           -1.0830    -0.8182     2.1259 H       
  27 H27           -2.4866    -1.8594     3.7999 H       
  28 H28           -6.9061    -4.9850    -1.9355 H       
  29 H29           -8.0705    -5.8979     2.7925 H       
  30 H30           -8.8211    -6.3931    -1.3683 H       
  31 H31           -9.3978    -6.8396     0.9762 H       
  32 H32            1.5208    -1.4834    -0.0201 H       
  33 H33            3.2810     0.3563    -0.0270 H       
  34 H34            2.3315     2.7094    -0.0060 H       
@<TRIPOS>BOND
   1    1   17 1
   2    1   22 1
   3    2   10 2
   4    3    6 1
   5    3    7 1
   6    3   10 am
   7    4   11 1
   8    4   12 1
   9    4   26 1
  10    5    7 2
  11    5    9 1
  12    6   11 2
  13    7   13 1
  14    8    9 ar
  15    8   10 1
  16    8   15 ar
  17    9   16 ar
  18   11   14 1
  19   12   17 1
  20   12   23 1
  21   12   24 1
  22   13   14 2
  23   13   25 1
  24   14   27 1
  25   15   18 ar
  26   15   28 1
  27   16   19 ar
  28   16   29 1
  29   17   20 2
  30   18   19 ar
  31   18   30 1
  32   19   31 1
  33   20   21 1
  34   20   32 1
  35   21   22 2
  36   21   33 1
  37   22   34 1

#	End of record

#	Name: 6616681
#	Creating user name:	landrgr1
#	Creation time:	28. 01. 2015 13:52

#	Modifying user name:	landrgr1
#	Modification time:	28. 01. 2015 13:52

#	Program:	corina 3.48 0006  22.01.2010

@<TRIPOS>MOLECULE
6616681
  45   48    0    0    0
SMALL
NO_CHARGES


@<TRIPOS>ATOM
   1 Br1           -2.1940    -0.0820    -2.8244 Br      
   2 Cl2            4.8314     5.3258    -2.6765 Cl      
   3 S3            -0.0218     1.7577     0.0117 S.3     
   4 O4            -2.2487    -2.6496     0.0097 O.2     
   5 O5             1.0374     4.3441     0.0155 O.2     
   6 N6            -1.1845    -0.6827     0.0097 N.am    
   7 N7             1.1604    -0.6253    -0.0128 N.2     
   8 N8             2.2578    -2.8538    -0.0357 N.pl3   
   9 N9             3.2396     4.0757    -0.0070 N.am    
  10 N10            1.7193    -4.1464    -0.0372 N.2     
  11 C11            0.0448    -2.7173    -0.0130 C.2     
  12 C12           -1.1970    -2.0343     0.0025 C.2     
  13 C13            0.0021    -0.0041     0.0020 C.2     
  14 C14           -2.3934     0.0261     0.0192 C.ar    
  15 C15            1.2299    -1.9633    -0.0207 C.2     
  16 C16            0.4177    -4.0771    -0.0240 C.2     
  17 C17            3.4610     5.5239    -0.0013 C.3     
  18 C18            1.7562     2.0963    -0.0035 C.3     
  19 C19           -2.9997     0.3847    -1.1785 C.ar    
  20 C20           -2.9906     0.3664     1.2250 C.ar    
  21 C21            4.9413     5.8057    -0.0139 C.ar    
  22 C22            1.9840     3.5860     0.0024 C.2     
  23 C23           -4.1919     1.0830    -1.1654 C.ar    
  24 C24           -4.1827     1.0648     1.2313 C.ar    
  25 C25           -4.7812     1.4249     0.0381 C.ar    
  26 C26            5.6488     5.7371    -1.2012 C.ar    
  27 C27            5.5916     6.1383     1.1592 C.ar    
  28 C28            7.0076     5.9959    -1.2120 C.ar    
  29 C29            6.9497     6.3973     1.1477 C.ar    
  30 C30            7.6580     6.3229    -0.0368 C.ar    
  31 H31           -0.2599    -4.9181    -0.0223 H       
  32 H32            2.9995     5.9654    -0.8846 H       
  33 H33            3.0165     5.9559     0.8953 H       
  34 H34            2.2177     1.6547     0.8798 H       
  35 H35            2.2007     1.6643    -0.9001 H       
  36 H36           -2.5241     0.0852     2.1576 H       
  37 H37            3.2019    -2.6316    -0.0435 H       
  38 H38            3.9966     3.4694    -0.0175 H       
  39 H39           -4.6637     1.3625    -2.0958 H       
  40 H40           -4.6476     1.3297     2.1694 H       
  41 H41           -5.7128     1.9711     0.0460 H       
  42 H42            5.0387     6.1963     2.0852 H       
  43 H43            7.5603     5.9421    -2.1383 H       
  44 H44            7.4573     6.6579     2.0647 H       
  45 H45            8.7189     6.5250    -0.0451 H       
@<TRIPOS>BOND
   1    1   19 1
   2    2   26 1
   3    3   13 1
   4    3   18 1
   5    4   12 2
   6    5   22 2
   7    6   12 am
   8    6   13 1
   9    6   14 1
  10    7   13 2
  11    7   15 1
  12    8   10 1
  13    8   15 1
  14    8   37 1
  15    9   17 1
  16    9   22 am
  17    9   38 1
  18   10   16 2
  19   11   12 1
  20   11   15 2
  21   11   16 1
  22   14   19 ar
  23   14   20 ar
  24   16   31 1
  25   17   21 1
  26   17   32 1
  27   17   33 1
  28   18   22 1
  29   18   34 1
  30   18   35 1
  31   19   23 ar
  32   20   24 ar
  33   20   36 1
  34   21   26 ar
  35   21   27 ar
  36   23   25 ar
  37   23   39 1
  38   24   25 ar
  39   24   40 1
  40   25   41 1
  41   26   28 ar
  42   27   29 ar
  43   27   42 1
  44   28   30 ar
  45   28   43 1
  46   29   30 ar
  47   29   44 1
  48   30   45 1

#	End of record

#	Name: 6614520
#	Creating user name:	landrgr1
#	Creation time:	28. 01. 2015 13:52

#	Modifying user name:	landrgr1
#	Modification time:	28. 01. 2015 13:52

#	Program:	corina 3.48 0006  22.01.2010

@<TRIPOS>MOLECULE
6614520
  32   33    0    0    0
SMALL
NO_CHARGES


@<TRIPOS>ATOM
   1 O1             0.0763     1.2285    -1.7819 O.3     
   2 O2            -2.1928    -0.2443    -1.7170 O.2     
   3 O3             6.4963    -8.3898     0.2188 O.3     
   4 N4             2.4791    -4.1545    -0.7136 N.pl3   
   5 N5             3.6905    -4.8292    -0.5136 N.2     
   6 N6             5.1172    -8.1250     0.0317 N.2     
   7 N7             2.4969    -6.8183    -0.2736 N.pl3   
   8 N8             7.1791    -7.1490     0.2010 N.2     
   9 N9             6.5636    -4.8458    -0.0589 N.pl3   
  10 C10            1.2642    -2.1587    -1.1315 C.2     
  11 C11            1.2606    -0.7653    -1.3612 C.2     
  12 C12            0.0826    -0.1139    -1.5607 C.2     
  13 C13            0.0472    -2.8713    -1.1094 C.2     
  14 C14           -1.1324    -0.8311    -1.5377 C.2     
  15 C15           -1.1274    -2.2174    -1.3090 C.2     
  16 C16            2.4766    -2.8339    -0.9313 C.2     
  17 C17            4.9711    -6.8299    -0.0902 C.2     
  18 C18            3.6930    -6.1181    -0.3012 C.2     
  19 C19            6.2962    -6.2062     0.0190 C.2     
  20 C20            1.3427     1.8904    -1.7913 C.3     
  21 H21            2.1912    -0.2175    -1.3783 H       
  22 H22            0.0487    -3.9370    -0.9341 H       
  23 H23            3.4084    -2.2884    -0.9528 H       
  24 H24           -2.0586    -2.7644    -1.2922 H       
  25 H25            1.6421    -4.6445    -0.6943 H       
  26 H26            1.9681     1.4671    -2.5773 H       
  27 H27            1.1953     2.9542    -1.9777 H       
  28 H28            1.8307     1.7549    -0.8261 H       
  29 H29            1.6543    -6.3413    -0.3315 H       
  30 H30            2.5026    -7.7852    -0.1963 H       
  31 H31            7.4809    -4.5306    -0.0519 H       
  32 H32            5.8330    -4.2107    -0.1202 H       
@<TRIPOS>BOND
   1    1   12 1
   2    1   20 1
   3    2   14 2
   4    3    6 1
   5    3    8 1
   6    4    5 1
   7    4   16 1
   8    4   25 1
   9    5   18 2
  10    6   17 2
  11    7   18 1
  12    7   29 1
  13    7   30 1
  14    8   19 2
  15    9   19 1
  16    9   31 1
  17    9   32 1
  18   10   11 1
  19   10   13 1
  20   10   16 2
  21   11   12 2
  22   11   21 1
  23   12   14 1
  24   13   15 2
  25   13   22 1
  26   14   15 1
  27   15   24 1
  28   16   23 1
  29   17   18 1
  30   17   19 1
  31   20   26 1
  32   20   27 1
  33   20   28 1

#	End of record

#	Name: 6603660
#	Creating user name:	landrgr1
#	Creation time:	28. 01. 2015 13:52

#	Modifying user name:	landrgr1
#	Modification time:	28. 01. 2015 13:52

#	Program:	corina 3.48 0006  22.01.2010

@<TRIPOS>MOLECULE
6603660
  35   36    0    0    0
SMALL
NO_CHARGES


@<TRIPOS>ATOM
   1 Cl1            0.0000     0.0000     0.0000 Cl      
   2 H2             0.0000     1.3700     0.0000 H       
   3 S3             6.9139    11.8828    10.1073 S.3     
   4 N4             9.1436    10.7598    10.0799 N.pl3   
   5 N5             9.3837    13.1469    10.0902 N.2     
   6 C6             8.2156     9.7421    10.0831 C.2     
   7 C7             8.6163     8.2698    10.0697 C.3     
   8 C8             7.4268     7.4266    10.5293 C.3     
   9 C9             6.1890     7.7964     9.7061 C.3     
  10 C10            5.7385     9.2070    10.1049 C.3     
  11 C11            6.9379    10.1159    10.0976 C.2     
  12 C12           10.5805    10.4744    10.0643 C.3     
  13 C13            8.6799    12.0417    10.0913 C.2     
  14 C14           11.0594    10.3847     8.6382 C.ar    
  15 C15           11.5123    11.5178     7.9887 C.ar    
  16 C16           11.0510     9.1683     7.9815 C.ar    
  17 C17           11.9515    11.4355     6.6805 C.ar    
  18 C18           11.4903     9.0860     6.6734 C.ar    
  19 C19           11.9382    10.2201     6.0221 C.ar    
  20 H20            8.9011     7.9784     9.0587 H       
  21 H21            9.4567     8.1143    10.7461 H       
  22 H22            7.6545     6.3700    10.3882 H       
  23 H23            7.2318     7.6182    11.5844 H       
  24 H24            6.4366     7.7777     8.6448 H       
  25 H25            5.3883     7.0854     9.9100 H       
  26 H26            5.0000     9.5707     9.3905 H       
  27 H27            5.3034     9.1831    11.1041 H       
  28 H28           11.1153    11.2736    10.5776 H       
  29 H29           10.7684     9.5278    10.5709 H       
  30 H30           11.5226    12.4673     8.5031 H       
  31 H31           10.7016     8.2822     8.4906 H       
  32 H32            8.9356    14.0072    10.0993 H       
  33 H33           12.3047    12.3209     6.1728 H       
  34 H34           11.4841     8.1356     6.1605 H       
  35 H35           12.2811    10.1559     5.0000 H       
@<TRIPOS>BOND
   1    1    2 1
   2    3   11 1
   3    3   13 1
   4    4    6 1
   5    4   12 1
   6    4   13 1
   7    5   13 2
   8    5   32 1
   9    6    7 1
  10    6   11 2
  11    7    8 1
  12    7   20 1
  13    7   21 1
  14    8    9 1
  15    8   22 1
  16    8   23 1
  17    9   10 1
  18    9   24 1
  19    9   25 1
  20   10   11 1
  21   10   26 1
  22   10   27 1
  23   12   14 1
  24   12   28 1
  25   12   29 1
  26   14   15 ar
  27   14   16 ar
  28   15   17 ar
  29   15   30 1
  30   16   18 ar
  31   16   31 1
  32   17   19 ar
  33   17   33 1
  34   18   19 ar
  35   18   34 1
  36   19   35 1

#	End of record

#	Name: 6603629
#	Creating user name:	landrgr1
#	Creation time:	28. 01. 2015 13:52

#	Modifying user name:	landrgr1
#	Modification time:	28. 01. 2015 13:52

#	Program:	corina 3.48 0006  22.01.2010

@<TRIPOS>MOLECULE
6603629
  47   49    0    0    0
SMALL
NO_CHARGES


@<TRIPOS>ATOM
   1 Cl1            0.0000     0.0000     0.0000 Cl      
   2 H2             0.0000     1.3700     0.0000 H       
   3 N3            11.6240    11.5207    10.3935 N.3     
   4 N4            10.1405    14.6207    10.2785 N.pl3   
   5 N5            11.8217    14.4260    11.5739 N.2     
   6 N6            10.6883    15.7787    10.4317 N.2     
   7 N7            11.7032    15.6576    11.2145 N.2     
   8 C8            11.6859    11.9682     9.0007 C.3     
   9 C9            12.7475    11.1399     8.2661 C.3     
  10 C10           12.2327     9.7025     8.1595 C.3     
  11 C11           11.4324    10.1455    10.5187 C.ar    
  12 C12           11.7082     9.2509     9.4993 C.ar    
  13 C13           10.6012    12.2649    11.1405 C.3     
  14 C14           10.8574    13.7438    11.0058 C.2     
  15 C15           10.9411     9.6681    11.7348 C.ar    
  16 C16           11.5012     7.8949     9.6965 C.ar    
  17 C17            8.9568    14.3181     9.4701 C.3     
  18 C18           10.7361     8.3180    11.9230 C.ar    
  19 C19           11.0168     7.4283    10.9025 C.ar    
  20 C20            9.3668    14.1613     8.0044 C.3     
  21 C21            8.1371    13.9533     7.1584 C.ar    
  22 C22            7.4783    15.0414     6.6173 C.ar    
  23 C23            7.6713    12.6741     6.9188 C.ar    
  24 C24            6.3503    14.8507     5.8413 C.ar    
  25 C25            6.5433    12.4833     6.1428 C.ar    
  26 C26            5.8814    13.5717     5.6060 C.ar    
  27 H27           10.7155    11.8226     8.5261 H       
  28 H28           11.9576    13.0233     8.9672 H       
  29 H29           12.9090    11.5486     7.2686 H       
  30 H30           13.6816    11.1562     8.8277 H       
  31 H31           11.4311     9.6581     7.4223 H       
  32 H32           13.0469     9.0477     7.8491 H       
  33 H33            9.6152    12.0290    10.7402 H       
  34 H34           10.6430    11.9833    12.1927 H       
  35 H35           10.7205    10.3608    12.5335 H       
  36 H36           11.7200     7.1980     8.9009 H       
  37 H37            8.5039    13.3911     9.8218 H       
  38 H38            8.2371    15.1315     9.5611 H       
  39 H39           10.3555     7.9556    12.8665 H       
  40 H40           10.8584     6.3700    11.0488 H       
  41 H41            9.8869    15.0606     7.6744 H       
  42 H42           10.0280    13.3009     7.9021 H       
  43 H43            7.8446    16.0407     6.8011 H       
  44 H44            8.1888    11.8237     7.3376 H       
  45 H45            5.8352    15.7008     5.4191 H       
  46 H46            6.1796    11.4838     5.9553 H       
  47 H47            5.0000    13.4227     5.0000 H       
@<TRIPOS>BOND
   1    1    2 1
   2    3    8 1
   3    3   11 1
   4    3   13 1
   5    4    6 1
   6    4   14 1
   7    4   17 1
   8    5    7 1
   9    5   14 2
  10    6    7 2
  11    8    9 1
  12    8   27 1
  13    8   28 1
  14    9   10 1
  15    9   29 1
  16    9   30 1
  17   10   12 1
  18   10   31 1
  19   10   32 1
  20   11   12 ar
  21   11   15 ar
  22   12   16 ar
  23   13   14 1
  24   13   33 1
  25   13   34 1
  26   15   18 ar
  27   15   35 1
  28   16   19 ar
  29   16   36 1
  30   17   20 1
  31   17   37 1
  32   17   38 1
  33   18   19 ar
  34   18   39 1
  35   19   40 1
  36   20   21 1
  37   20   41 1
  38   20   42 1
  39   21   22 ar
  40   21   23 ar
  41   22   24 ar
  42   22   43 1
  43   23   25 ar
  44   23   44 1
  45   24   26 ar
  46   24   45 1
  47   25   26 ar
  48   25   46 1
  49   26   47 1

#	End of record

#	Name: 6603562
#	Creating user name:	landrgr1
#	Creation time:	28. 01. 2015 13:52

#	Modifying user name:	landrgr1
#	Modification time:	28. 01. 2015 13:52

#	Program:	corina 3.48 0006  22.01.2010

@<TRIPOS>MOLECULE
6603562
  46   48    0    0    0
SMALL
NO_CHARGES


@<TRIPOS>ATOM
   1 Br1            0.0000     0.0000     0.0000 Br      
   2 H2             0.0000     1.5100     0.0000 H       
   3 S3            10.5501    10.8048     6.2236 S.3     
   4 F4            18.9329    10.0943     5.0000 F       
   5 F5            18.9529    10.0814     7.2844 F       
   6 O6            18.2015     8.2231     6.1382 O.3     
   7 N7             8.1097     8.6462     8.4134 N.pl3   
   8 N8             8.8257     6.9714     9.5377 N.2     
   9 N9             9.3596     6.9112     8.3676 N.2     
  10 N10           11.7860     8.6615     6.2003 N.2     
  11 C11            7.1310    10.7122     9.2775 C.3     
  12 C12            5.8041    10.3058     9.9170 C.3     
  13 C13            7.3861     9.8593     8.0317 C.3     
  14 C14            5.8474     8.8454    10.3560 C.3     
  15 C15            7.2665     8.4867    10.8073 C.3     
  16 C16            8.0597     8.0222     9.6134 C.2     
  17 C17            8.9520     7.9208     7.6449 C.2     
  18 C18            9.3470     8.2199     6.2217 C.3     
  19 C19           10.5733     9.0958     6.2142 C.2     
  20 C20           12.7523     9.5682     6.1959 C.2     
  21 C21           12.3114    10.8421     6.2070 C.2     
  22 C22           14.1927     9.2126     6.1803 C.ar    
  23 C23           14.5815     7.8742     6.1689 C.ar    
  24 C24           15.1596    10.2163     6.1712 C.ar    
  25 C25           15.9214     7.5469     6.1544 C.ar    
  26 C26           16.4979     9.8826     6.1567 C.ar    
  27 C27           16.8821     8.5488     6.1516 C.ar    
  28 C28           19.1365     9.3037     6.1361 C.3     
  29 H29            7.0902    11.7641     8.9948 H       
  30 H30            7.9396    10.5607     9.9926 H       
  31 H31            5.6151    10.9370    10.7854 H       
  32 H32            5.0000    10.4402     9.1935 H       
  33 H33            7.9813    10.4281     7.3173 H       
  34 H34            6.4340     9.5867     7.5765 H       
  35 H35            5.1543     8.6944    11.1836 H       
  36 H36            5.5598     8.2067     9.5209 H       
  37 H37            7.7434     9.3648    11.2427 H       
  38 H38            7.2225     7.6888    11.5486 H       
  39 H39            9.5636     7.2871     5.7010 H       
  40 H40            8.5292     8.7355     5.7183 H       
  41 H41           12.9285    11.7285     6.2055 H       
  42 H42           13.8345     7.0943     6.1717 H       
  43 H43           14.8614    11.2543     6.1752 H       
  44 H44           16.2233     6.5100     6.1455 H       
  45 H45           17.2477    10.6599     6.1493 H       
  46 H46           20.1513     8.9061     6.1250 H       
@<TRIPOS>BOND
   1    1    2 1
   2    3   19 1
   3    3   21 1
   4    4   28 1
   5    5   28 1
   6    6   27 1
   7    6   28 1
   8    7   13 1
   9    7   16 1
  10    7   17 1
  11    8    9 1
  12    8   16 2
  13    9   17 2
  14   10   19 2
  15   10   20 1
  16   11   12 1
  17   11   13 1
  18   11   29 1
  19   11   30 1
  20   12   14 1
  21   12   31 1
  22   12   32 1
  23   13   33 1
  24   13   34 1
  25   14   15 1
  26   14   35 1
  27   14   36 1
  28   15   16 1
  29   15   37 1
  30   15   38 1
  31   17   18 1
  32   18   19 1
  33   18   39 1
  34   18   40 1
  35   20   21 2
  36   20   22 1
  37   21   41 1
  38   22   23 ar
  39   22   24 ar
  40   23   25 ar
  41   23   42 1
  42   24   26 ar
  43   24   43 1
  44   25   27 ar
  45   25   44 1
  46   26   27 ar
  47   26   45 1
  48   28   46 1

#	End of record

#	Name: 6603483
#	Creating user name:	landrgr1
#	Creation time:	28. 01. 2015 13:52

#	Modifying user name:	landrgr1
#	Modification time:	28. 01. 2015 13:52

#	Program:	corina 3.48 0006  22.01.2010

@<TRIPOS>MOLECULE
6603483
  32   32    0    0    0
SMALL
NO_CHARGES


@<TRIPOS>ATOM
   1 Cl1            0.0000     0.0000     0.0000 Cl      
   2 H2             0.0000     1.3700     0.0000 H       
   3 S3             8.0659    15.3104     7.1562 S.3     
   4 N4             6.6385     7.2865     7.1226 N.3     
   5 N5             7.0031    12.7218     7.1524 N.pl3   
   6 N6             8.8047    11.5460     7.1282 N.2     
   7 N7             9.1557    12.7824     7.1317 N.2     
   8 C8             6.7043    10.1734     7.1417 C.3     
   9 C9             7.0306     9.3632     5.8840 C.3     
  10 C10            7.0622     9.3460     8.3793 C.3     
  11 C11            6.2607     8.0411     5.9208 C.3     
  12 C12            6.2914     8.0244     8.3438 C.3     
  13 C13            7.5054    11.4499     7.1403 C.2     
  14 C14            8.0898    13.5486     7.1465 C.2     
  15 C15            5.5921    13.1156     7.1631 C.3     
  16 C16            9.8439    15.6489     7.1410 C.3     
  17 H17            5.6404    10.4099     7.1568 H       
  18 H18            6.7383     9.9300     5.0000 H       
  19 H19            8.1009     9.1602     5.8494 H       
  20 H20            8.1331     9.1427     8.3840 H       
  21 H21            6.7926     9.9005     9.2782 H       
  22 H22            6.5018     7.4556     5.0336 H       
  23 H23            5.1901     8.2447     5.9415 H       
  24 H24            5.2207     8.2281     8.3531 H       
  25 H25            6.5549     7.4267     9.2165 H       
  26 H26            6.2165     6.3700     7.1216 H       
  27 H27            5.2478    13.2058     8.1934 H       
  28 H28            5.4785    14.0743     6.6569 H       
  29 H29            5.0000    12.3599     6.6471 H       
  30 H30           10.3053    15.2073     8.0243 H       
  31 H31           10.2883    15.2169     6.2444 H       
  32 H32           10.0086    16.7264     7.1452 H       
@<TRIPOS>BOND
   1    1    2 1
   2    3   14 1
   3    3   16 1
   4    4   11 1
   5    4   12 1
   6    4   26 1
   7    5   13 1
   8    5   14 1
   9    5   15 1
  10    6    7 1
  11    6   13 2
  12    7   14 2
  13    8    9 1
  14    8   10 1
  15    8   13 1
  16    8   17 1
  17    9   11 1
  18    9   18 1
  19    9   19 1
  20   10   12 1
  21   10   20 1
  22   10   21 1
  23   11   22 1
  24   11   23 1
  25   12   24 1
  26   12   25 1
  27   15   27 1
  28   15   28 1
  29   15   29 1
  30   16   30 1
  31   16   31 1
  32   16   32 1

#	End of record

#	Name: 6603463
#	Creating user name:	landrgr1
#	Creation time:	28. 01. 2015 13:52

#	Modifying user name:	landrgr1
#	Modification time:	28. 01. 2015 13:52

#	Program:	corina 3.48 0006  22.01.2010

@<TRIPOS>MOLECULE
6603463
  60   62    0    0    0
SMALL
NO_CHARGES


@<TRIPOS>ATOM
   1 Cl1            0.0000     0.0000     0.0000 Cl      
   2 H2             0.0000     1.3700     0.0000 H       
   3 F3             9.6918     7.7058    11.5098 F       
   4 O4            14.5999    13.3391     8.3770 O.3     
   5 O5            11.5347    16.7271     8.3494 O.3     
   6 N6            11.0776    11.1415     8.9845 N.3     
   7 N7             9.1800    10.3715    10.9623 N.3     
   8 N8            11.7830    13.5835     6.4195 N.pl3   
   9 N9            11.2485    11.5501     6.0704 N.2     
  10 N10           11.3573    13.4639     5.2075 N.2     
  11 N11           11.0353    12.2349     5.0000 N.2     
  12 C12            9.8066    11.8653     9.1267 C.3     
  13 C13           11.5193    10.5997    10.2772 C.3     
  14 C14           12.1108    12.0027     8.3940 C.3     
  15 C15            8.7383    10.9132     9.6696 C.3     
  16 C16           10.4510     9.6476    10.8202 C.3     
  17 C17           13.4270    11.2690     8.3771 C.ar    
  18 C18           11.7186    12.3635     6.9844 C.2     
  19 C19            8.1965     9.5516    11.5245 C.ar    
  20 C20           14.6184    11.9802     8.3695 C.ar    
  21 C21           13.4485     9.8879     8.3747 C.ar    
  22 C22            8.4728     8.2148    11.7927 C.ar    
  23 C23            6.9442    10.0710    11.8214 C.ar    
  24 C24           12.2541    14.8146     7.0588 C.3     
  25 C25           15.8282    11.3019     8.3538 C.ar    
  26 C26           14.6559     9.2141     8.3591 C.ar    
  27 C27           15.8443     9.9204     8.3458 C.ar    
  28 C28           11.0752    15.5262     7.7257 C.3     
  29 C29            7.4977     7.4080    12.3489 C.ar    
  30 C30            5.9744     9.2584    12.3773 C.ar    
  31 C31            6.2493     7.9290    12.6378 C.ar    
  32 C32           15.8642    14.0051     8.3685 C.3     
  33 C33           10.5063    17.4717     9.0051 C.3     
  34 H34            9.9375    12.6975     9.8184 H       
  35 H35            9.4942    12.2460     8.1543 H       
  36 H36           12.4555    10.0577    10.1437 H       
  37 H37           11.6696    11.4175    10.9820 H       
  38 H38           12.2091    12.9116     8.9877 H       
  39 H39            8.5880    10.0954     8.9648 H       
  40 H40            7.8021    11.4553     9.8032 H       
  41 H41           10.7634     9.2670    11.7926 H       
  42 H42           10.3201     8.8155    10.1285 H       
  43 H43           12.5215     9.3339     8.3855 H       
  44 H44           13.0034    14.5694     7.8115 H       
  45 H45           12.6951    15.4688     6.3068 H       
  46 H46            6.7278    11.1095    11.6185 H       
  47 H47           16.7569    11.8532     8.3476 H       
  48 H48           14.6706     8.1342     8.3577 H       
  49 H49           16.7860     9.3918     8.3333 H       
  50 H50           10.6342    14.8720     8.4778 H       
  51 H51           10.3259    15.7714     6.9731 H       
  52 H52            7.7107     6.3700    12.5578 H       
  53 H53            5.0000     9.6628    12.6087 H       
  54 H54            5.4889     7.2966    13.0716 H       
  55 H55           16.4166    13.7246     7.4717 H       
  56 H56           15.7068    15.0836     8.3758 H       
  57 H57           16.4336    13.7150     9.2515 H       
  58 H58            9.7452    17.7573     8.2790 H       
  59 H59           10.0535    16.8578     9.7838 H       
  60 H60           10.9358    18.3679     9.4528 H       
@<TRIPOS>BOND
   1    1    2 1
   2    3   22 1
   3    4   20 1
   4    4   32 1
   5    5   28 1
   6    5   33 1
   7    6   12 1
   8    6   13 1
   9    6   14 1
  10    7   15 1
  11    7   16 1
  12    7   19 1
  13    8   10 1
  14    8   18 1
  15    8   24 1
  16    9   11 1
  17    9   18 2
  18   10   11 2
  19   12   15 1
  20   12   34 1
  21   12   35 1
  22   13   16 1
  23   13   36 1
  24   13   37 1
  25   14   17 1
  26   14   18 1
  27   14   38 1
  28   15   39 1
  29   15   40 1
  30   16   41 1
  31   16   42 1
  32   17   20 ar
  33   17   21 ar
  34   19   22 ar
  35   19   23 ar
  36   20   25 ar
  37   21   26 ar
  38   21   43 1
  39   22   29 ar
  40   23   30 ar
  41   23   46 1
  42   24   28 1
  43   24   44 1
  44   24   45 1
  45   25   27 ar
  46   25   47 1
  47   26   27 ar
  48   26   48 1
  49   27   49 1
  50   28   50 1
  51   28   51 1
  52   29   31 ar
  53   29   52 1
  54   30   31 ar
  55   30   53 1
  56   31   54 1
  57   32   55 1
  58   32   56 1
  59   32   57 1
  60   33   58 1
  61   33   59 1
  62   33   60 1

#	End of record

#	Name: 6603435
#	Creating user name:	landrgr1
#	Creation time:	28. 01. 2015 13:52

#	Modifying user name:	landrgr1
#	Modification time:	28. 01. 2015 13:52

#	Program:	corina 3.48 0006  22.01.2010

@<TRIPOS>MOLECULE
6603435
  47   48    0    0    0
SMALL
NO_CHARGES


@<TRIPOS>ATOM
   1 Br1            0.0000     0.0000     0.0000 Br      
   2 H2             0.0000     1.5100     0.0000 H       
   3 N3            11.1425    10.9869     6.6126 N.pl3   
   4 N4            14.7095     8.8953     7.2777 N.2     
   5 C5            11.1611     9.6133     6.6051 C.2     
   6 C6            12.3503    11.6412     6.6046 C.2     
   7 C7            12.2933     8.8873     6.7677 C.2     
   8 C8            13.5366    11.0078     6.7680 C.2     
   9 C9             9.9814     8.6939     6.4248 C.3     
  10 C10           12.5769    13.1191     6.4204 C.3     
  11 C11           11.9997     7.4168     6.7146 C.3     
  12 C12           14.6766    11.9821     6.7162 C.3     
  13 C13           10.5924     7.3159     6.0794 C.3     
  14 C14           14.0216    13.3702     6.9118 C.3     
  15 C15           13.6020     9.5447     6.9629 C.2     
  16 C16            9.8788    11.7279     6.6227 C.3     
  17 C17            9.4458    11.9781     8.0687 C.3     
  18 C18            8.1260    12.7520     8.0792 C.3     
  19 C19            7.6930    13.0022     9.5252 C.3     
  20 C20            6.3732    13.7761     9.5357 C.3     
  21 C21            5.9402    14.0263    10.9817 C.3     
  22 H22            9.4056     8.6317     7.3482 H       
  23 H23            9.3506     9.0436     5.6075 H       
  24 H24           12.4830    13.3880     5.3682 H       
  25 H25           11.8683    13.6884     7.0219 H       
  26 H26           12.7342     6.9056     6.0923 H       
  27 H27           11.9934     6.9947     7.7195 H       
  28 H28           15.3848    11.7803     7.5198 H       
  29 H29           15.1753    11.9312     5.7483 H       
  30 H30           10.0169     6.5100     6.5349 H       
  31 H31           10.6616     7.1806     5.0000 H       
  32 H32           14.5158    14.1235     6.2982 H       
  33 H33           14.0302    13.6597     7.9626 H       
  34 H34           10.0131    12.6822     6.1134 H       
  35 H35            9.1127    11.1468     6.1094 H       
  36 H36            9.3114    11.0238     8.5780 H       
  37 H37           10.2119    12.5592     8.5820 H       
  38 H38            8.2604    13.7063     7.5699 H       
  39 H39            7.3599    12.1709     7.5659 H       
  40 H40            7.5587    12.0479    10.0345 H       
  41 H41            8.4591    13.5833    10.0385 H       
  42 H42           15.5408     9.3816     7.3931 H       
  43 H43            6.5076    14.7304     9.0264 H       
  44 H44            5.6071    13.1950     9.0224 H       
  45 H45            5.0000    14.5776    10.9892 H       
  46 H46            5.8059    13.0720    11.4910 H       
  47 H47            6.7063    14.6074    11.4950 H       
@<TRIPOS>BOND
   1    1    2 1
   2    3    5 1
   3    3    6 1
   4    3   16 1
   5    4   15 2
   6    4   42 1
   7    5    7 2
   8    5    9 1
   9    6    8 2
  10    6   10 1
  11    7   11 1
  12    7   15 1
  13    8   12 1
  14    8   15 1
  15    9   13 1
  16    9   22 1
  17    9   23 1
  18   10   14 1
  19   10   24 1
  20   10   25 1
  21   11   13 1
  22   11   26 1
  23   11   27 1
  24   12   14 1
  25   12   28 1
  26   12   29 1
  27   13   30 1
  28   13   31 1
  29   14   32 1
  30   14   33 1
  31   16   17 1
  32   16   34 1
  33   16   35 1
  34   17   18 1
  35   17   36 1
  36   17   37 1
  37   18   19 1
  38   18   38 1
  39   18   39 1
  40   19   20 1
  41   19   40 1
  42   19   41 1
  43   20   21 1
  44   20   43 1
  45   20   44 1
  46   21   45 1
  47   21   46 1
  48   21   47 1

#	End of record

#	Name: 6603385
#	Creating user name:	landrgr1
#	Creation time:	28. 01. 2015 13:52

#	Modifying user name:	landrgr1
#	Modification time:	28. 01. 2015 13:52

#	Program:	corina 3.48 0006  22.01.2010

@<TRIPOS>MOLECULE
6603385
  61   62    0    0    0
SMALL
NO_CHARGES


@<TRIPOS>ATOM
   1 Cl1            0.0000     0.0000     0.0000 Cl      
   2 H2             0.0000     1.3700     0.0000 H       
   3 S3            15.5448    16.6775     9.1412 S.3     
   4 S4             6.2424    10.1254     8.1512 S.o2    
   5 O5            12.6230    16.7532    12.3517 O.3     
   6 O6            11.7223    13.4755     6.2418 O.2     
   7 O7             5.3984    10.4886     7.0673 O.2     
   8 O8             5.8806    10.3083     9.5131 O.2     
   9 N9            13.4011    14.7262    10.5703 N.3     
  10 N10           12.2072    13.3485     8.4054 N.am    
  11 N11            6.5718     8.5129     7.9674 N.am    
  12 C12           14.2392    14.1153     9.5299 C.3     
  13 C13           12.7597    15.9535    10.0767 C.3     
  14 C14           14.1838    14.9995    11.7843 C.3     
  15 C15           13.4653    14.0735     8.2108 C.3     
  16 C16           11.8515    16.5233    11.1696 C.3     
  17 C17           13.2613    15.5788    12.8601 C.3     
  18 C18           15.4930    14.9320     9.3511 C.2     
  19 C19           16.7333    14.4415     9.3270 C.2     
  20 C20           11.4035    13.0990     7.3527 C.2     
  21 C21           17.7303    15.3852     9.1494 C.2     
  22 C22           17.2997    16.6420     9.0293 C.2     
  23 C23           10.1339    12.3672     7.5491 C.ar    
  24 C24            7.7558    10.9968     7.9170 C.ar    
  25 C25            6.9623     7.7081     9.1277 C.3     
  26 C26            6.4727     7.8911     6.6446 C.3     
  27 C27            9.2992    12.1072     6.4611 C.ar    
  28 C28            9.7675    11.9285     8.8225 C.ar    
  29 C29            8.1158    11.4240     6.6512 C.ar    
  30 C30            8.5814    11.2463     8.9989 C.ar    
  31 C31            5.7270     7.0161     9.7074 C.3     
  32 C32            7.8527     7.8746     5.9842 C.3     
  33 H33           14.5056    13.1009     9.8271 H       
  34 H34           13.5249    16.6864     9.8206 H       
  35 H35           12.1650    15.7233     9.1927 H       
  36 H36           14.6287    14.0728    12.1468 H       
  37 H37           14.9717    15.7171    11.5556 H       
  38 H38           14.0638    13.5660     7.4543 H       
  39 H39           13.2514    15.0907     7.8827 H       
  40 H40           11.0545    15.8124    11.3878 H       
  41 H41           11.4182    17.4637    10.8291 H       
  42 H42           13.8476    15.8361    13.7423 H       
  43 H43           12.5053    14.8404    13.1274 H       
  44 H44           11.9528    13.0480     9.2919 H       
  45 H45           16.9436    13.3881     9.4381 H       
  46 H46           18.7775    15.1238     9.1114 H       
  47 H47           17.9320    17.5056     8.8850 H       
  48 H48            7.6893     6.9564     8.8204 H       
  49 H49            7.4058     8.3542     9.8853 H       
  50 H50            6.1080     6.8693     6.7498 H       
  51 H51            5.7805     8.4621     6.0257 H       
  52 H52            9.5789    12.4404     5.4726 H       
  53 H53           10.4112    12.1223     9.6677 H       
  54 H54            7.4671    11.2258     5.8108 H       
  55 H55            8.2944    10.9105     9.9844 H       
  56 H56            5.0000     7.7678    10.0147 H       
  57 H57            5.2834     6.3700     8.9498 H       
  58 H58            6.0175     6.4173    10.5706 H       
  59 H59            8.2174     8.8963     5.8790 H       
  60 H60            8.5449     7.3036     6.6031 H       
  61 H61            7.7790     7.4119     5.0000 H       
@<TRIPOS>BOND
   1    1    2 1
   2    3   18 1
   3    3   22 1
   4    4    7 2
   5    4    8 2
   6    4   11 am
   7    4   24 1
   8    5   16 1
   9    5   17 1
  10    6   20 2
  11    9   12 1
  12    9   13 1
  13    9   14 1
  14   10   15 1
  15   10   20 am
  16   10   44 1
  17   11   25 1
  18   11   26 1
  19   12   15 1
  20   12   18 1
  21   12   33 1
  22   13   16 1
  23   13   34 1
  24   13   35 1
  25   14   17 1
  26   14   36 1
  27   14   37 1
  28   15   38 1
  29   15   39 1
  30   16   40 1
  31   16   41 1
  32   17   42 1
  33   17   43 1
  34   18   19 2
  35   19   21 1
  36   19   45 1
  37   20   23 1
  38   21   22 2
  39   21   46 1
  40   22   47 1
  41   23   27 ar
  42   23   28 ar
  43   24   29 ar
  44   24   30 ar
  45   25   31 1
  46   25   48 1
  47   25   49 1
  48   26   32 1
  49   26   50 1
  50   26   51 1
  51   27   29 ar
  52   27   52 1
  53   28   30 ar
  54   28   53 1
  55   29   54 1
  56   30   55 1
  57   31   56 1
  58   31   57 1
  59   31   58 1
  60   32   59 1
  61   32   60 1
  62   32   61 1

#	End of record

#	Name: 6603357
#	Creating user name:	landrgr1
#	Creation time:	28. 01. 2015 13:52

#	Modifying user name:	landrgr1
#	Modification time:	28. 01. 2015 13:52

#	Program:	corina 3.48 0006  22.01.2010

@<TRIPOS>MOLECULE
6603357
  51   53    0    0    0
SMALL
NO_CHARGES


@<TRIPOS>ATOM
   1 Cl1            0.0000     0.0000     0.0000 Cl      
   2 H2             0.0000     1.3700     0.0000 H       
   3 O3             8.8317    11.0323    11.8895 O.3     
   4 O4            10.6380     9.6948    13.6819 O.3     
   5 N5             7.1103    14.1567     6.3313 N.3     
   6 N6             8.2361    10.8790     7.7212 N.pl3   
   7 N7             8.8587     9.5954     9.4360 N.pl3   
   8 N8            10.0014    11.6611     9.1166 N.2     
   9 C9             5.9995    15.0676     6.6631 C.3     
  10 C10            8.3701    14.9305     6.3326 C.3     
  11 C11            6.6036    16.4747     6.8540 C.3     
  12 C12            7.9362    16.3931     6.0640 C.3     
  13 C13            7.1775    13.0398     7.2833 C.3     
  14 C14            8.1691    11.9928     6.7719 C.3     
  15 C15            7.4379     9.7359     7.6985 C.ar    
  16 C16            9.0990    10.7775     8.7828 C.2     
  17 C17            7.8258     8.9339     8.7727 C.ar    
  18 C18            9.5672     9.1100    10.6229 C.3     
  19 C19            8.8511     9.6035    11.8817 C.3     
  20 C20            6.4193     9.3158     6.8561 C.ar    
  21 C21            7.1886     7.7222     8.9947 C.ar    
  22 C22            5.7931     8.1053     7.0828 C.ar    
  23 C23            6.1726     7.3137     8.1522 C.ar    
  24 C24            9.5800     9.1043    13.1026 C.2     
  25 C25            9.2815     7.9914    13.7967 C.2     
  26 C26           10.2142     7.9067    14.8558 C.2     
  27 C27           11.0269     8.9730    14.7456 C.2     
  28 H28            5.2758    15.0822     5.8481 H       
  29 H29            5.5166    14.7432     7.5849 H       
  30 H30            8.8623    14.8526     7.3021 H       
  31 H31            9.0319    14.5794     5.5408 H       
  32 H32            5.9495    17.2359     6.4287 H       
  33 H33            6.7925    16.6732     7.9090 H       
  34 H34            8.6686    17.0966     6.4599 H       
  35 H35            7.7704    16.5620     5.0000 H       
  36 H36            7.5078    13.4093     8.2541 H       
  37 H37            6.1908    12.5876     7.3831 H       
  38 H38            9.1558    12.4450     6.6721 H       
  39 H39            7.8388    11.6233     5.8010 H       
  40 H40            9.5820     8.0202    10.6169 H       
  41 H41           10.5898     9.4873    10.6151 H       
  42 H42            7.8285     9.2262    11.8894 H       
  43 H43            6.1162     9.9339     6.0240 H       
  44 H44            7.4864     7.0987     9.8247 H       
  45 H45            5.0000     7.7786     6.4265 H       
  46 H46            5.6767     6.3700     8.3256 H       
  47 H47           10.1021    12.4725     8.5946 H       
  48 H48            9.7097    11.4376    11.8833 H       
  49 H49            8.4823     7.2962    13.5858 H       
  50 H50           10.2644     7.1344    15.6091 H       
  51 H51           11.8521     9.2086    15.4013 H       
@<TRIPOS>BOND
   1    1    2 1
   2    3   19 1
   3    3   48 1
   4    4   24 1
   5    4   27 1
   6    5    9 1
   7    5   10 1
   8    5   13 1
   9    6   14 1
  10    6   15 1
  11    6   16 1
  12    7   16 1
  13    7   17 1
  14    7   18 1
  15    8   16 2
  16    8   47 1
  17    9   11 1
  18    9   28 1
  19    9   29 1
  20   10   12 1
  21   10   30 1
  22   10   31 1
  23   11   12 1
  24   11   32 1
  25   11   33 1
  26   12   34 1
  27   12   35 1
  28   13   14 1
  29   13   36 1
  30   13   37 1
  31   14   38 1
  32   14   39 1
  33   15   17 ar
  34   15   20 ar
  35   17   21 ar
  36   18   19 1
  37   18   40 1
  38   18   41 1
  39   19   24 1
  40   19   42 1
  41   20   22 ar
  42   20   43 1
  43   21   23 ar
  44   21   44 1
  45   22   23 ar
  46   22   45 1
  47   23   46 1
  48   24   25 2
  49   25   26 1
  50   25   49 1
  51   26   27 2
  52   26   50 1
  53   27   51 1

#	End of record

#	Name: 6603349
#	Creating user name:	landrgr1
#	Creation time:	28. 01. 2015 13:52

#	Modifying user name:	landrgr1
#	Modification time:	28. 01. 2015 13:52

#	Program:	corina 3.48 0006  22.01.2010

@<TRIPOS>MOLECULE
6603349
  55   58    0    0    0
SMALL
NO_CHARGES


@<TRIPOS>ATOM
   1 Cl1            0.0000     0.0000     0.0000 Cl      
   2 H2             0.0000     1.3700     0.0000 H       
   3 F3            20.2621     6.3700    10.9795 F       
   4 N4            13.0970    11.1917     7.0496 N.3     
   5 N5            15.8898     9.3261     9.5937 N.pl3   
   6 N6            15.5018     9.6053    10.7899 N.2     
   7 N7            10.9723    13.6629     6.8619 N.pl3   
   8 N8            16.2782     9.0881    11.6761 N.2     
   9 N9            12.6777    14.1934     5.6989 N.2     
  10 N10           11.0637    14.9489     6.8139 N.2     
  11 N11           12.0945    15.2659     6.1109 N.2     
  12 C12           15.2356     9.7565     8.3555 C.3     
  13 C13           13.8018     9.2202     8.3212 C.3     
  14 C14           15.2015    11.2863     8.2998 C.3     
  15 C15           13.1043     9.7233     7.0553 C.3     
  16 C16           14.4634    11.7295     7.0346 C.3     
  17 C17           12.3149    11.7100     5.9193 C.3     
  18 C18           17.0261     8.5601     9.6802 C.ar    
  19 C19           12.0013    13.1657     6.1509 C.2     
  20 C20           17.2656     8.4083    11.0590 C.ar    
  21 C21           17.8839     7.9673     8.7621 C.ar    
  22 C22            9.9452    12.8891     7.5637 C.3     
  23 C23           18.3675     7.6644    11.4886 C.ar    
  24 C24           18.9588     7.2474     9.2038 C.ar    
  25 C25            8.8211    12.5318     6.5893 C.3     
  26 C26           19.1960     7.0892    10.5654 C.ar    
  27 C27            7.8255    11.6344     7.2781 C.ar    
  28 C28            6.7517    12.1835     7.9537 C.ar    
  29 C29            7.9829    10.2619     7.2296 C.ar    
  30 C30            5.8385    11.3604     8.5856 C.ar    
  31 C31            7.0696     9.4387     7.8614 C.ar    
  32 C32            5.9988     9.9880     8.5415 C.ar    
  33 H33           15.7889     9.3721     7.4986 H       
  34 H34           13.8209     8.1304     8.3175 H       
  35 H35           13.2605     9.5723     9.1993 H       
  36 H36           14.6821    11.6709     9.1776 H       
  37 H37           16.2205    11.6726     8.2809 H       
  38 H38           12.0787     9.3549     7.0349 H       
  39 H39           13.6383     9.3594     6.1774 H       
  40 H40           14.9910    11.3562     6.1568 H       
  41 H41           14.4249    12.8182     6.9992 H       
  42 H42           12.8909    11.6041     5.0000 H       
  43 H43           11.3853    11.1474     5.8325 H       
  44 H44           17.7018     8.0744     7.7029 H       
  45 H45           10.3867    11.9748     7.9602 H       
  46 H46            9.5404    13.4823     8.3837 H       
  47 H47           18.5639     7.5446    12.5438 H       
  48 H48            8.3219    13.4433     6.2604 H       
  49 H49            9.2395    12.0149     5.7257 H       
  50 H50           19.6241     6.7871     8.4885 H       
  51 H51            6.6265    13.2557     7.9881 H       
  52 H52            8.8191     9.8327     6.6977 H       
  53 H53            5.0000    11.7894     9.1140 H       
  54 H54            7.1924     8.3664     7.8232 H       
  55 H55            5.2855     9.3449     9.0354 H       
@<TRIPOS>BOND
   1    1    2 1
   2    3   26 1
   3    4   15 1
   4    4   16 1
   5    4   17 1
   6    5    6 1
   7    5   12 1
   8    5   18 1
   9    6    8 2
  10    7   10 1
  11    7   19 1
  12    7   22 1
  13    8   20 1
  14    9   11 1
  15    9   19 2
  16   10   11 2
  17   12   13 1
  18   12   14 1
  19   12   33 1
  20   13   15 1
  21   13   34 1
  22   13   35 1
  23   14   16 1
  24   14   36 1
  25   14   37 1
  26   15   38 1
  27   15   39 1
  28   16   40 1
  29   16   41 1
  30   17   19 1
  31   17   42 1
  32   17   43 1
  33   18   20 ar
  34   18   21 ar
  35   20   23 ar
  36   21   24 ar
  37   21   44 1
  38   22   25 1
  39   22   45 1
  40   22   46 1
  41   23   26 ar
  42   23   47 1
  43   24   26 ar
  44   24   50 1
  45   25   27 1
  46   25   48 1
  47   25   49 1
  48   27   28 ar
  49   27   29 ar
  50   28   30 ar
  51   28   51 1
  52   29   31 ar
  53   29   52 1
  54   30   32 ar
  55   30   53 1
  56   31   32 ar
  57   31   54 1
  58   32   55 1

#	End of record

#	Name: 6603334
#	Creating user name:	landrgr1
#	Creation time:	28. 01. 2015 13:52

#	Modifying user name:	landrgr1
#	Modification time:	28. 01. 2015 13:52

#	Program:	corina 3.48 0006  22.01.2010

@<TRIPOS>MOLECULE
6603334
  36   37    0    0    0
SMALL
NO_CHARGES


@<TRIPOS>ATOM
   1 Cl1            0.0000     0.0000     0.0000 Cl      
   2 H2             0.0000     1.3700     0.0000 H       
   3 O3             5.4862    12.8745     7.1851 O.3     
   4 N4             6.9131    11.8320    10.0921 N.3     
   5 N5             5.5620     7.3950     7.4502 N.pl3   
   6 N6             5.5658     8.4838     9.3406 N.2     
   7 C7             6.9575    12.7581    11.2309 C.3     
   8 C8             7.7109    12.3356     8.9668 C.3     
   9 C9             8.3998    12.8931    11.7243 C.3     
  10 C10            9.1757    12.4580     9.3926 C.3     
  11 C11            9.2777    13.4151    10.5835 C.3     
  12 C12            5.5276    11.5706     9.6799 C.3     
  13 C13            5.5254    10.8226     8.3716 C.ar    
  14 C14            5.5438     9.4252     8.3622 C.ar    
  15 C15            5.5046    11.5149     7.1776 C.ar    
  16 C16            5.5411     8.7409     7.1354 C.ar    
  17 C17            5.5020    10.8296     5.9656 C.ar    
  18 C18            5.5201     9.4521     5.9434 C.ar    
  19 C19            5.5764     7.2973     8.8066 C.2     
  20 H20            6.5873    13.7348    10.9194 H       
  21 H21            6.3325    12.3730    12.0367 H       
  22 H22            7.6331    11.6437     8.1281 H       
  23 H23            7.3371    13.3143     8.6658 H       
  24 H24            8.4347    13.5925    12.5596 H       
  25 H25            8.7661    11.9192    12.0489 H       
  26 H26            9.5542    11.4772     9.6806 H       
  27 H27            9.7649    12.8466     8.5620 H       
  28 H28            8.9356    14.4060    10.2848 H       
  29 H29           10.3136    13.4717    10.9176 H       
  30 H30            5.0287    10.9715    10.4417 H       
  31 H31            5.0000    12.5166     9.5584 H       
  32 H32            5.4854    11.3812     5.0373 H       
  33 H33            5.5183     8.9263     5.0000 H       
  34 H34            5.5622     6.6571     6.8205 H       
  35 H35            5.5935     6.3700     9.3599 H       
  36 H36            6.3641    13.2798     7.1789 H       
@<TRIPOS>BOND
   1    1    2 1
   2    3   15 1
   3    3   36 1
   4    4    7 1
   5    4    8 1
   6    4   12 1
   7    5   16 1
   8    5   19 1
   9    5   34 1
  10    6   14 1
  11    6   19 2
  12    7    9 1
  13    7   20 1
  14    7   21 1
  15    8   10 1
  16    8   22 1
  17    8   23 1
  18    9   11 1
  19    9   24 1
  20    9   25 1
  21   10   11 1
  22   10   26 1
  23   10   27 1
  24   11   28 1
  25   11   29 1
  26   12   13 1
  27   12   30 1
  28   12   31 1
  29   13   14 ar
  30   13   15 ar
  31   14   16 ar
  32   15   17 ar
  33   16   18 ar
  34   17   18 ar
  35   17   32 1
  36   18   33 1
  37   19   35 1

#	End of record

#	Name: 6603247
#	Creating user name:	landrgr1
#	Creation time:	28. 01. 2015 13:52

#	Modifying user name:	landrgr1
#	Modification time:	28. 01. 2015 13:52

#	Program:	corina 3.48 0006  22.01.2010

@<TRIPOS>MOLECULE
6603247
  42   44    0    0    0
SMALL
NO_CHARGES


@<TRIPOS>ATOM
   1 Cl1            0.0000     0.0000     0.0000 Cl      
   2 H2             0.0000     1.3700     0.0000 H       
   3 N3             8.5172    10.8469     6.6126 N.pl3   
   4 N4            12.0842     8.7553     7.2777 N.2     
   5 C5             8.5358     9.4733     6.6051 C.2     
   6 C6             9.7250    11.5012     6.6046 C.2     
   7 C7             9.6679     8.7473     6.7677 C.2     
   8 C8            10.9113    10.8678     6.7680 C.2     
   9 C9             7.3561     8.5539     6.4248 C.3     
  10 C10            9.9516    12.9791     6.4204 C.3     
  11 C11            9.3744     7.2768     6.7146 C.3     
  12 C12           12.0513    11.8421     6.7162 C.3     
  13 C13            7.9671     7.1759     6.0794 C.3     
  14 C14           11.3963    13.2302     6.9118 C.3     
  15 C15           10.9767     9.4047     6.9629 C.2     
  16 C16            7.2535    11.5879     6.6227 C.3     
  17 C17            6.8270    11.8343     8.0470 C.ar    
  18 C18            7.2370    12.9800     8.7029 C.ar    
  19 C19            6.0211    10.9174     8.6956 C.ar    
  20 C20            6.8458    13.2060    10.0093 C.ar    
  21 C21            5.6299    11.1434    10.0020 C.ar    
  22 C22            6.0442    12.2865    10.6597 C.ar    
  23 H23            6.7803     8.4917     7.3482 H       
  24 H24            6.7253     8.9036     5.6075 H       
  25 H25            9.8577    13.2480     5.3682 H       
  26 H26            9.2430    13.5484     7.0219 H       
  27 H27           10.1089     6.7656     6.0923 H       
  28 H28            9.3680     6.8547     7.7195 H       
  29 H29           12.7595    11.6403     7.5198 H       
  30 H30           12.5500    11.7912     5.7483 H       
  31 H31            7.3916     6.3700     6.5349 H       
  32 H32            8.0363     7.0406     5.0000 H       
  33 H33           11.8904    13.9835     6.2982 H       
  34 H34           11.4048    13.5197     7.9626 H       
  35 H35            7.3878    12.5422     6.1134 H       
  36 H36            6.4874    11.0068     6.1094 H       
  37 H37           12.9155     9.2416     7.3931 H       
  38 H38            7.8632    13.6983     8.1948 H       
  39 H39            5.6969    10.0246     8.1816 H       
  40 H40            7.1667    14.1007    10.5220 H       
  41 H41            5.0000    10.4272    10.5087 H       
  42 H42            5.7389    12.4629    11.6805 H       
@<TRIPOS>BOND
   1    1    2 1
   2    3    5 1
   3    3    6 1
   4    3   16 1
   5    4   15 2
   6    4   37 1
   7    5    7 2
   8    5    9 1
   9    6    8 2
  10    6   10 1
  11    7   11 1
  12    7   15 1
  13    8   12 1
  14    8   15 1
  15    9   13 1
  16    9   23 1
  17    9   24 1
  18   10   14 1
  19   10   25 1
  20   10   26 1
  21   11   13 1
  22   11   27 1
  23   11   28 1
  24   12   14 1
  25   12   29 1
  26   12   30 1
  27   13   31 1
  28   13   32 1
  29   14   33 1
  30   14   34 1
  31   16   17 1
  32   16   35 1
  33   16   36 1
  34   17   18 ar
  35   17   19 ar
  36   18   20 ar
  37   18   38 1
  38   19   21 ar
  39   19   39 1
  40   20   22 ar
  41   20   40 1
  42   21   22 ar
  43   21   41 1
  44   22   42 1

#	End of record

#	Name: 6603239
#	Creating user name:	landrgr1
#	Creation time:	28. 01. 2015 13:52

#	Modifying user name:	landrgr1
#	Modification time:	28. 01. 2015 13:52

#	Program:	corina 3.48 0006  22.01.2010

@<TRIPOS>MOLECULE
6603239
  30   29    0    0    0
SMALL
NO_CHARGES


@<TRIPOS>ATOM
   1 I1             0.0000     0.0000     0.0000 I       
   2 H2             0.0000     1.7100     0.0000 H       
   3 N3             7.2306    12.6425     5.5323 N.pl3   
   4 N4             7.1892    16.5046     6.7237 N.2     
   5 C5             7.2712    10.6600     6.9638 C.3     
   6 C6             7.2919     9.1302     6.9554 C.3     
   7 C7             7.2505    11.1777     5.5242 C.3     
   8 C8             7.3126     8.6125     8.3950 C.3     
   9 C9             7.3334     7.0827     8.3866 C.3     
  10 C10            8.4134    13.3156     5.5246 C.2     
  11 C11            6.0300    13.2832     5.5416 C.2     
  12 C12            8.4611    14.6279     5.8314 C.2     
  13 C13            5.9511    14.5940     5.8484 C.2     
  14 C14            7.2003    15.3061     6.1660 C.2     
  15 H15            6.3813    11.0084     7.4881 H       
  16 H16            8.1610    11.0327     7.4712 H       
  17 H17            6.4021     8.7575     6.4481 H       
  18 H18            8.1818     8.7818     6.4312 H       
  19 H19            6.3607    10.8051     5.0169 H       
  20 H20            8.1404    10.8293     5.0000 H       
  21 H21            8.2025     8.9851     8.9024 H       
  22 H22            6.4227     8.9609     8.9193 H       
  23 H23            7.3481     6.7138     9.4122 H       
  24 H24            6.4435     6.7100     7.8792 H       
  25 H25            8.2233     6.7342     7.8624 H       
  26 H26            9.3238    12.7930     5.2704 H       
  27 H27            5.1307    12.7360     5.3002 H       
  28 H28            9.3982    15.1649     5.8317 H       
  29 H29            5.0000    15.1055     5.8610 H       
  30 H30            6.3452    16.9330     6.9357 H       
@<TRIPOS>BOND
   1    1    2 1
   2    3    7 1
   3    3   10 1
   4    3   11 1
   5    4   14 2
   6    4   30 1
   7    5    6 1
   8    5    7 1
   9    5   15 1
  10    5   16 1
  11    6    8 1
  12    6   17 1
  13    6   18 1
  14    7   19 1
  15    7   20 1
  16    8    9 1
  17    8   21 1
  18    8   22 1
  19    9   23 1
  20    9   24 1
  21    9   25 1
  22   10   12 2
  23   10   26 1
  24   11   13 2
  25   11   27 1
  26   12   14 1
  27   12   28 1
  28   13   14 1
  29   13   29 1

#	End of record

#	Name: 6603238
#	Creating user name:	landrgr1
#	Creation time:	28. 01. 2015 13:52

#	Modifying user name:	landrgr1
#	Modification time:	28. 01. 2015 13:52

#	Program:	corina 3.48 0006  22.01.2010

@<TRIPOS>MOLECULE
6603238
  21   20    0    0    0
SMALL
NO_CHARGES


@<TRIPOS>ATOM
   1 Br1            0.0000     0.0000     0.0000 Br      
   2 H2             0.0000     1.5100     0.0000 H       
   3 N3             7.2306     9.5824     5.5323 N.pl3   
   4 N4             7.1892    13.4445     6.7237 N.2     
   5 C5             7.2505     8.1176     5.5242 C.3     
   6 C6             8.4134    10.2555     5.5246 C.2     
   7 C7             6.0300    10.2231     5.5416 C.2     
   8 C8             7.2712     7.5999     6.9638 C.3     
   9 C9             8.4611    11.5678     5.8314 C.2     
  10 C10            5.9511    11.5338     5.8484 C.2     
  11 C11            7.2003    12.2460     6.1660 C.2     
  12 H12            6.3607     7.7449     5.0169 H       
  13 H13            8.1404     7.7692     5.0000 H       
  14 H14            9.3238     9.7329     5.2704 H       
  15 H15            5.1307     9.6759     5.3002 H       
  16 H16            7.2860     6.5100     6.9578 H       
  17 H17            8.1610     7.9725     7.4712 H       
  18 H18            6.3813     7.9483     7.4881 H       
  19 H19            9.3982    12.1048     5.8317 H       
  20 H20            5.0000    12.0454     5.8610 H       
  21 H21            6.3452    13.8729     6.9357 H       
@<TRIPOS>BOND
   1    1    2 1
   2    3    5 1
   3    3    6 1
   4    3    7 1
   5    4   11 2
   6    4   21 1
   7    5    8 1
   8    5   12 1
   9    5   13 1
  10    6    9 2
  11    6   14 1
  12    7   10 2
  13    7   15 1
  14    8   16 1
  15    8   17 1
  16    8   18 1
  17    9   11 1
  18    9   19 1
  19   10   11 1
  20   10   20 1

#	End of record

#	Name: 6603213
#	Creating user name:	landrgr1
#	Creation time:	28. 01. 2015 13:52

#	Modifying user name:	landrgr1
#	Modification time:	28. 01. 2015 13:52

#	Program:	corina 3.48 0006  22.01.2010

@<TRIPOS>MOLECULE
6603213
  26   25    0    0    0
SMALL
NO_CHARGES


@<TRIPOS>ATOM
   1 Cl1            0.0000     0.0000     0.0000 Cl      
   2 H2             0.0000     1.3700     0.0000 H       
   3 O3             9.8124    10.8577    10.5716 O.3     
   4 O4             7.0055    11.1735    10.2438 O.2     
   5 N5             7.7243     9.2846     9.3312 N.am    
   6 N6             6.4296    10.8187     8.1420 N.2     
   7 C7             8.3964     8.8992    10.5746 C.3     
   8 C8             7.7778     8.4645     8.2493 C.2     
   9 C9             7.1479     8.8370     7.1026 C.2     
  10 C10            9.8318     9.4288    10.5637 C.3     
  11 C11            7.0503    10.4479     9.2645 C.2     
  12 C12            6.4621    10.0549     7.0689 C.2     
  13 C13            8.5262     7.1583     8.3186 C.3     
  14 C14            5.7554    10.4893     5.8108 C.3     
  15 H15            7.8596     9.3219    11.4238 H       
  16 H16            8.4107     7.8125    10.6582 H       
  17 H17            7.1775     8.2010     6.2303 H       
  18 H18           10.3420     9.0773     9.6669 H       
  19 H19           10.3590     9.0677    11.4468 H       
  20 H20            7.8512     6.3700     8.6518 H       
  21 H21            8.9156     6.9098     7.3313 H       
  22 H22            9.3531     7.2502     9.0227 H       
  23 H23            5.2765    11.4541     5.9777 H       
  24 H24            6.4785    10.5780     5.0000 H       
  25 H25            5.0000     9.7499     5.5446 H       
  26 H26           10.6904    11.2630    10.5654 H       
@<TRIPOS>BOND
   1    1    2 1
   2    3   10 1
   3    3   26 1
   4    4   11 2
   5    5    7 1
   6    5    8 1
   7    5   11 am
   8    6   11 1
   9    6   12 2
  10    7   10 1
  11    7   15 1
  12    7   16 1
  13    8    9 2
  14    8   13 1
  15    9   12 1
  16    9   17 1
  17   10   18 1
  18   10   19 1
  19   12   14 1
  20   13   20 1
  21   13   21 1
  22   13   22 1
  23   14   23 1
  24   14   24 1
  25   14   25 1

#	End of record

#	Name: 6603177
#	Creating user name:	landrgr1
#	Creation time:	28. 01. 2015 13:52

#	Modifying user name:	landrgr1
#	Modification time:	28. 01. 2015 13:52

#	Program:	corina 3.48 0006  22.01.2010

@<TRIPOS>MOLECULE
6603177
  47   49    0    0    0
SMALL
NO_CHARGES


@<TRIPOS>ATOM
   1 Cl1            0.0000     0.0000     0.0000 Cl      
   2 H2             0.0000     1.3700     0.0000 H       
   3 N3             7.1042    12.4855    12.9993 N.3     
   4 N4             9.4680    11.8615    11.5404 N.3     
   5 N5             9.6617    10.4719     9.6541 N.ar    
   6 N6            11.5613    10.4062     8.3109 N.ar    
   7 N7             7.8410     7.6206     7.2565 N.ar    
   8 C8             7.9482    11.3475    13.3895 C.3     
   9 C9             7.9111    13.5504    12.3873 C.3     
  10 C10            8.6612    10.7966    12.1523 C.3     
  11 C11            8.6241    12.9995    11.1501 C.3     
  12 C12            6.3438    12.9953    14.1481 C.3     
  13 C13           10.1817    11.3830    10.4622 C.ar    
  14 C14           11.4909    11.8542    10.1901 C.ar    
  15 C15            5.6754    14.3188    13.7704 C.3     
  16 C16           12.1755    11.3260     9.0676 C.ar    
  17 C17           12.1149    12.8145    10.9925 C.ar    
  18 C18           10.3408    10.0022     8.6091 C.ar    
  19 C19           13.4708    11.7777     8.7792 C.ar    
  20 C20           13.3770    13.2317    10.6840 C.ar    
  21 C21            9.6991     8.9823     7.7450 C.ar    
  22 C22           14.0507    12.7158     9.5811 C.ar    
  23 C23           10.3758     8.4618     6.6375 C.ar    
  24 C24            8.4121     8.5266     8.0236 C.ar    
  25 C25            9.7333     7.5117     5.8629 C.ar    
  26 C26            8.4545     7.1112     6.2058 C.ar    
  27 H27            8.6880    11.6768    14.1191 H       
  28 H28            7.3264    10.5672    13.8285 H       
  29 H29            7.2622    14.3762    12.0955 H       
  30 H30            8.6505    13.9047    13.1055 H       
  31 H31            7.9218    10.4423    11.4341 H       
  32 H32            9.3100     9.9708    12.4441 H       
  33 H33            9.2459    13.7798    10.7112 H       
  34 H34            7.8842    12.6702    10.4205 H       
  35 H35            5.5803    12.2700    14.4292 H       
  36 H36            7.0192    13.1562    14.9883 H       
  37 H37            6.4389    15.0442    13.4892 H       
  38 H38            5.0000    14.1580    12.9301 H       
  39 H39            5.1112    14.6971    14.6228 H       
  40 H40           11.6013    13.2235    11.8501 H       
  41 H41           14.0063    11.3849     7.9275 H       
  42 H42           13.8591    13.9734    11.3036 H       
  43 H43           15.0487    13.0628     9.3576 H       
  44 H44           11.3741     8.7931     6.3926 H       
  45 H45            7.8778     8.9199     8.8758 H       
  46 H46           10.2251     7.0876     5.0000 H       
  47 H47            7.9503     6.3700     5.6035 H       
@<TRIPOS>BOND
   1    1    2 1
   2    3    8 1
   3    3    9 1
   4    3   12 1
   5    4   10 1
   6    4   11 1
   7    4   13 1
   8    5   13 ar
   9    5   18 ar
  10    6   16 ar
  11    6   18 ar
  12    7   24 ar
  13    7   26 ar
  14    8   10 1
  15    8   27 1
  16    8   28 1
  17    9   11 1
  18    9   29 1
  19    9   30 1
  20   10   31 1
  21   10   32 1
  22   11   33 1
  23   11   34 1
  24   12   15 1
  25   12   35 1
  26   12   36 1
  27   13   14 ar
  28   14   16 ar
  29   14   17 ar
  30   15   37 1
  31   15   38 1
  32   15   39 1
  33   16   19 ar
  34   17   20 ar
  35   17   40 1
  36   18   21 1
  37   19   22 ar
  38   19   41 1
  39   20   22 ar
  40   20   42 1
  41   21   23 ar
  42   21   24 ar
  43   22   43 1
  44   23   25 ar
  45   23   44 1
  46   24   45 1
  47   25   26 ar
  48   25   46 1
  49   26   47 1

#	End of record

#	Name: 6603097
#	Creating user name:	landrgr1
#	Creation time:	28. 01. 2015 13:52

#	Modifying user name:	landrgr1
#	Modification time:	28. 01. 2015 13:52

#	Program:	corina 3.48 0006  22.01.2010

@<TRIPOS>MOLECULE
6603097
  51   53    0    0    0
SMALL
NO_CHARGES


@<TRIPOS>ATOM
   1 Cl1            0.0000     0.0000     0.0000 Cl      
   2 H2             0.0000     1.3700     0.0000 H       
   3 N3             8.5045    10.8222    11.5506 N.3     
   4 N4            10.6219     9.4045    10.2808 N.3     
   5 N5            12.5876     9.3173     9.0442 N.ar    
   6 N6            10.7374     8.0857     8.3592 N.ar    
   7 N7            10.7363     6.7241     6.4427 N.pl3   
   8 C8             8.5245     9.3528    11.5425 C.3     
   9 C9             9.8703    11.3647    11.5404 C.3     
  10 C10            9.2561     8.8621    10.2910 C.3     
  11 C11           10.6020    10.8739    10.2889 C.3     
  12 C12            7.7441    11.3321    12.6994 C.3     
  13 C13           11.3379     8.9245     9.1992 C.ar    
  14 C14            7.9479    12.8207    12.8159 C.2     
  15 C15           13.3151     8.8741     8.0079 C.ar    
  16 C16           12.7166     7.9796     7.0875 C.ar    
  17 C17           11.3704     7.5920     7.3055 C.ar    
  18 C18            6.9008    13.6333    12.8386 C.2     
  19 C19           14.6446     9.2711     7.8127 C.ar    
  20 C20           13.4578     7.5062     6.0002 C.ar    
  21 C21            7.1007    15.0934    12.9529 C.ar    
  22 C22           15.3404     8.7915     6.7424 C.ar    
  23 C23           14.7504     7.9127     5.8394 C.ar    
  24 C24            6.0006    15.9515    12.9770 C.ar    
  25 C25            8.3901    15.6191    13.0431 C.ar    
  26 C26            6.1940    17.3133    13.0844 C.ar    
  27 C27            8.5699    16.9829    13.1501 C.ar    
  28 C28            7.4752    17.8286    13.1681 C.ar    
  29 H29            9.0416     8.9913    12.4313 H       
  30 H30            7.5020     8.9753    11.5374 H       
  31 H31            9.8290    12.4539    11.5339 H       
  32 H32           10.4027    11.0259    12.4292 H       
  33 H33            8.7237     9.2008     9.4022 H       
  34 H34            9.2975     7.7729    10.2975 H       
  35 H35           11.6245    11.2515    10.2939 H       
  36 H36           10.0849    11.2355     9.4001 H       
  37 H37            6.6844    11.1206    12.5564 H       
  38 H38            8.0921    10.8453    13.6104 H       
  39 H39            8.9471    13.2255    12.8811 H       
  40 H40            5.9016    13.2286    12.7734 H       
  41 H41           15.1153     9.9530     8.5055 H       
  42 H42           13.0104     6.8234     5.2930 H       
  43 H43           16.3650     9.0988     6.5932 H       
  44 H44           15.3233     7.5471     5.0000 H       
  45 H45            9.8148     6.4674     6.6034 H       
  46 H46           11.2116     6.3700     5.6748 H       
  47 H47            5.0000    15.5505    12.9113 H       
  48 H48            9.2455    14.9599    13.0295 H       
  49 H49            5.3434    17.9786    13.1027 H       
  50 H50            9.5674    17.3910    13.2203 H       
  51 H51            7.6213    18.8954    13.2517 H       
@<TRIPOS>BOND
   1    1    2 1
   2    3    8 1
   3    3    9 1
   4    3   12 1
   5    4   10 1
   6    4   11 1
   7    4   13 1
   8    5   13 ar
   9    5   15 ar
  10    6   13 ar
  11    6   17 ar
  12    7   17 1
  13    7   45 1
  14    7   46 1
  15    8   10 1
  16    8   29 1
  17    8   30 1
  18    9   11 1
  19    9   31 1
  20    9   32 1
  21   10   33 1
  22   10   34 1
  23   11   35 1
  24   11   36 1
  25   12   14 1
  26   12   37 1
  27   12   38 1
  28   14   18 2
  29   14   39 1
  30   15   16 ar
  31   15   19 ar
  32   16   17 ar
  33   16   20 ar
  34   18   21 1
  35   18   40 1
  36   19   22 ar
  37   19   41 1
  38   20   23 ar
  39   20   42 1
  40   21   24 ar
  41   21   25 ar
  42   22   23 ar
  43   22   43 1
  44   23   44 1
  45   24   26 ar
  46   24   47 1
  47   25   27 ar
  48   25   48 1
  49   26   28 ar
  50   26   49 1
  51   27   28 ar
  52   27   50 1
  53   28   51 1

#	End of record

#	Name: 6603054
#	Creating user name:	landrgr1
#	Creation time:	28. 01. 2015 13:52

#	Modifying user name:	landrgr1
#	Modification time:	28. 01. 2015 13:52

#	Program:	corina 3.48 0006  22.01.2010

@<TRIPOS>MOLECULE
6603054
  63   65    0    0    0
SMALL
NO_CHARGES


@<TRIPOS>ATOM
   1 Cl1            0.0000     0.0000     0.0000 Cl      
   2 H2             0.0000     1.3700     0.0000 H       
   3 O3             9.5428    18.5375     8.2495 O.3     
   4 O4             7.0454    17.4273     7.9065 O.3     
   5 N5            11.8195     9.5832    10.9186 N.3     
   6 N6            10.9312     8.0977    13.1791 N.3     
   7 N7            12.9476    12.9148    10.1013 N.pl3   
   8 N8            14.1973    11.1956    10.2594 N.2     
   9 N9            14.1685    13.2976    10.2676 N.2     
  10 N10           14.9204    12.2570    10.3627 N.2     
  11 C11           10.6347     8.7183    10.8295 C.3     
  12 C12           11.9747    10.1206    12.2776 C.3     
  13 C13           11.7565    10.6662     9.9282 C.3     
  14 C14           10.7761     7.5603    11.8201 C.3     
  15 C15           12.1160     8.9625    13.2682 C.3     
  16 C16           12.9518    11.5689    10.0941 C.2     
  17 C17           11.7594    10.0787     8.5405 C.ar    
  18 C18           10.9943     7.0146    14.1695 C.3     
  19 C19           11.7762    13.7821     9.9542 C.3     
  20 C20           12.6638     9.0862     8.2120 C.ar    
  21 C21           10.8540    10.5284     7.5977 C.ar    
  22 C22           11.5582    14.0981     8.4732 C.3     
  23 C23           12.6665     8.5473     6.9390 C.ar    
  24 C24           10.8566     9.9895     6.3247 C.ar    
  25 C25           10.3532    14.9903     8.3219 C.ar    
  26 C26           11.7645     9.0006     5.9947 C.ar    
  27 C27           10.5036    16.3641     8.3553 C.ar    
  28 C28            9.1004    14.4331     8.1443 C.ar    
  29 C29            9.3966    17.1858     8.2164 C.ar    
  30 C30            7.9919    15.2472     8.0050 C.ar    
  31 C31            8.1349    16.6250     8.0433 C.ar    
  32 C32           10.8673    19.0425     8.4308 C.3     
  33 C33            5.7823    16.7820     7.7324 C.3     
  34 H34           10.8430    11.2420    10.0771 H       
  35 H35            9.7432     9.2969    11.0712 H       
  36 H36           10.5486     8.3227     9.8175 H       
  37 H37           12.8654    10.7473    12.3213 H       
  38 H38           11.0983    10.7151    12.5358 H       
  39 H39           11.6524     6.9657    11.5619 H       
  40 H40            9.8853     6.9336    11.7764 H       
  41 H41           12.2021     9.3581    14.2802 H       
  42 H42           13.0076     8.3839    13.0265 H       
  43 H43           11.8452     6.3700    13.9493 H       
  44 H44           11.1091     7.4401    15.1664 H       
  45 H45           10.0752     6.4300    14.1276 H       
  46 H46           10.8966    13.2750    10.3508 H       
  47 H47           11.9394    14.7094    10.5034 H       
  48 H48           13.3684     8.7320     8.9498 H       
  49 H49           10.1442    11.3005     7.8557 H       
  50 H50           12.4378    14.6052     8.0766 H       
  51 H51           11.3950    13.1708     7.9240 H       
  52 H52           13.3735     7.7724     6.6822 H       
  53 H53           10.1490    10.3405     5.5882 H       
  54 H54           11.7668     8.5799     5.0000 H       
  55 H55           11.4839    16.7968     8.4901 H       
  56 H56            8.9876    13.3594     8.1139 H       
  57 H57            7.0144    14.8095     7.8660 H       
  58 H58           10.8427    20.1322     8.4385 H       
  59 H59           11.2673    18.6813     9.3782 H       
  60 H60           11.5020    18.6992     7.6139 H       
  61 H61            5.0000    17.5349     7.6359 H       
  62 H62            5.8089    16.1682     6.8321 H       
  63 H63            5.5746    16.1509     8.5965 H       
@<TRIPOS>BOND
   1    1    2 1
   2    3   29 1
   3    3   32 1
   4    4   31 1
   5    4   33 1
   6    5   11 1
   7    5   12 1
   8    5   13 1
   9    6   14 1
  10    6   15 1
  11    6   18 1
  12    7    9 1
  13    7   16 1
  14    7   19 1
  15    8   10 1
  16    8   16 2
  17    9   10 2
  18   11   14 1
  19   11   35 1
  20   11   36 1
  21   12   15 1
  22   12   37 1
  23   12   38 1
  24   13   16 1
  25   13   17 1
  26   13   34 1
  27   14   39 1
  28   14   40 1
  29   15   41 1
  30   15   42 1
  31   17   20 ar
  32   17   21 ar
  33   18   43 1
  34   18   44 1
  35   18   45 1
  36   19   22 1
  37   19   46 1
  38   19   47 1
  39   20   23 ar
  40   20   48 1
  41   21   24 ar
  42   21   49 1
  43   22   25 1
  44   22   50 1
  45   22   51 1
  46   23   26 ar
  47   23   52 1
  48   24   26 ar
  49   24   53 1
  50   25   27 ar
  51   25   28 ar
  52   26   54 1
  53   27   29 ar
  54   27   55 1
  55   28   30 ar
  56   28   56 1
  57   29   31 ar
  58   30   31 ar
  59   30   57 1
  60   32   58 1
  61   32   59 1
  62   32   60 1
  63   33   61 1
  64   33   62 1
  65   33   63 1

#	End of record

#	Name: 6603023
#	Creating user name:	landrgr1
#	Creation time:	28. 01. 2015 13:52

#	Modifying user name:	landrgr1
#	Modification time:	28. 01. 2015 13:52

#	Program:	corina 3.48 0006  22.01.2010

@<TRIPOS>MOLECULE
6603023
  47   47    0    0    0
SMALL
NO_CHARGES


@<TRIPOS>ATOM
   1 Cl1            0.0000     0.0000     0.0000 Cl      
   2 H2             0.0000     1.3700     0.0000 H       
   3 O3            11.6267    13.1750     7.9913 O.3     
   4 O4            13.3519     7.5126     8.4445 O.2     
   5 N5             7.9383     9.1082     7.9046 N.3     
   6 C6             6.7057     8.3740     8.2176 C.3     
   7 C7             8.7963     8.3411     6.9926 C.3     
   8 C8             5.9072     8.1438     6.9326 C.3     
   9 C9             8.0602     8.1100     5.6710 C.3     
  10 C10            6.7610     7.3465     5.9427 C.3     
  11 C11            8.6626     9.4680     9.1310 C.3     
  12 C12           10.0276     9.9960     8.7716 C.ar    
  13 C13           10.2055    11.3489     8.5448 C.ar    
  14 C14           11.0960     9.1295     8.6762 C.ar    
  15 C15           11.4594    11.8446     8.2132 C.ar    
  16 C16           12.3634     9.6182     8.3423 C.ar    
  17 C17           12.5392    10.9848     8.1080 C.ar    
  18 C18           10.4509    13.9870     7.9998 C.3     
  19 C19           13.5071     8.6975     8.2395 C.2     
  20 C20           10.1169    14.3859     9.4386 C.3     
  21 C21           10.6943    15.2458     7.1650 C.3     
  22 C22           14.8711     9.2276     7.8796 C.3     
  23 H23            6.9592     7.4128     8.6647 H       
  24 H24            6.1058     8.9537     8.9191 H       
  25 H25            9.7148     8.8970     6.8043 H       
  26 H26            9.0400     7.3800     7.4455 H       
  27 H27            5.0000     7.5852     7.1629 H       
  28 H28            5.6415     9.1049     6.4922 H       
  29 H29            7.8284     9.0705     5.2107 H       
  30 H30            8.6912     7.5272     5.0000 H       
  31 H31            6.9943     6.3700     6.3671 H       
  32 H32            6.2123     7.2176     5.0098 H       
  33 H33            8.1065    10.2354     9.6695 H       
  34 H34            8.7688     8.5858     9.7623 H       
  35 H35            9.3653    12.0226     8.6256 H       
  36 H36           10.9544     8.0745     8.8587 H       
  37 H37           13.5149    11.3693     7.8498 H       
  38 H38            9.6184    13.4253     7.5759 H       
  39 H39            9.2200    15.0053     9.4451 H       
  40 H40            9.9435    13.4891    10.0333 H       
  41 H41           10.9494    14.9475     9.8625 H       
  42 H42           10.9322    14.9616     6.1399 H       
  43 H43            9.7974    15.8652     7.1714 H       
  44 H44           11.5268    15.8075     7.5888 H       
  45 H45           14.9936     9.2101     6.7966 H       
  46 H46           14.9697    10.2516     8.2399 H       
  47 H47           15.6367     8.6045     8.3419 H       
@<TRIPOS>BOND
   1    1    2 1
   2    3   15 1
   3    3   18 1
   4    4   19 2
   5    5    6 1
   6    5    7 1
   7    5   11 1
   8    6    8 1
   9    6   23 1
  10    6   24 1
  11    7    9 1
  12    7   25 1
  13    7   26 1
  14    8   10 1
  15    8   27 1
  16    8   28 1
  17    9   10 1
  18    9   29 1
  19    9   30 1
  20   10   31 1
  21   10   32 1
  22   11   12 1
  23   11   33 1
  24   11   34 1
  25   12   13 ar
  26   12   14 ar
  27   13   15 ar
  28   13   35 1
  29   14   16 ar
  30   14   36 1
  31   15   17 ar
  32   16   17 ar
  33   16   19 1
  34   17   37 1
  35   18   20 1
  36   18   21 1
  37   18   38 1
  38   19   22 1
  39   20   39 1
  40   20   40 1
  41   20   41 1
  42   21   42 1
  43   21   43 1
  44   21   44 1
  45   22   45 1
  46   22   46 1
  47   22   47 1

#	End of record

#	Name: 6603016
#	Creating user name:	landrgr1
#	Creation time:	28. 01. 2015 13:52

#	Modifying user name:	landrgr1
#	Modification time:	28. 01. 2015 13:52

#	Program:	corina 3.48 0006  22.01.2010

@<TRIPOS>MOLECULE
6603016
  44   46    0    0    0
SMALL
NO_CHARGES


@<TRIPOS>ATOM
   1 Cl1            0.0000     0.0000     0.0000 Cl      
   2 H2             0.0000     1.3700     0.0000 H       
   3 O3             9.5765    17.1351     9.1368 O.3     
   4 O4            11.8875    15.7521     8.4323 O.3     
   5 O5             6.1200    13.5511     9.7061 O.2     
   6 N6             5.7023     9.4662     9.5622 N.3     
   7 C7             6.5129     8.9236    10.6739 C.3     
   8 C8             7.0581     7.6035    10.0820 C.3     
   9 C9             6.2369     8.9806     8.3624 C.ar    
  10 C10            7.0457     7.8733     8.5905 C.ar    
  11 C11            5.6995    10.9351     9.5808 C.3     
  12 C12            7.1049    11.4518     9.2668 C.3     
  13 C13            6.0682     9.4390     7.0572 C.ar    
  14 C14            7.6666     7.2322     7.5396 C.ar    
  15 C15            7.1283    12.9532     9.3945 C.2     
  16 C16            6.6933     8.7952     6.0094 C.ar    
  17 C17            7.4927     7.6923     6.2465 C.ar    
  18 C18            8.3718    13.6924     9.1418 C.ar    
  19 C19            8.3965    15.0870     9.2597 C.ar    
  20 C20            9.5688    15.7785     9.0213 C.ar    
  21 C21            9.5374    13.0048     8.7829 C.ar    
  22 C22           10.7254    15.0870     8.6663 C.ar    
  23 C23           10.7008    13.7012     8.5479 C.ar    
  24 C24           10.8576    17.7635     9.2533 C.3     
  25 C25           11.7869    17.1596     8.1918 C.3     
  26 H26            7.3291     9.6013    10.9240 H       
  27 H27            5.8902     8.7278    11.5468 H       
  28 H28            8.0730     7.4137    10.4316 H       
  29 H29            6.4013     6.7694    10.3290 H       
  30 H30            5.0000    11.3066     8.8319 H       
  31 H31            5.3956    11.2853    10.5673 H       
  32 H32            7.8171    11.0164     9.9677 H       
  33 H33            7.3770    11.1694     8.2498 H       
  34 H34            5.4460    10.3007     6.8655 H       
  35 H35            8.2897     6.3700     7.7261 H       
  36 H36            6.5585     9.1548     5.0000 H       
  37 H37            7.9797     7.1903     5.4236 H       
  38 H38            7.5000    15.6221     9.5360 H       
  39 H39            9.5233    11.9290     8.6895 H       
  40 H40           11.5989    13.1694     8.2706 H       
  41 H41           10.7575    18.8361     9.0869 H       
  42 H42           11.2673    17.5818    10.2469 H       
  43 H43           12.7739    17.6163     8.2643 H       
  44 H44           11.3726    17.3342     7.1988 H       
@<TRIPOS>BOND
   1    1    2 1
   2    3   20 1
   3    3   24 1
   4    4   22 1
   5    4   25 1
   6    5   15 2
   7    6    7 1
   8    6    9 1
   9    6   11 1
  10    7    8 1
  11    7   26 1
  12    7   27 1
  13    8   10 1
  14    8   28 1
  15    8   29 1
  16    9   10 ar
  17    9   13 ar
  18   10   14 ar
  19   11   12 1
  20   11   30 1
  21   11   31 1
  22   12   15 1
  23   12   32 1
  24   12   33 1
  25   13   16 ar
  26   13   34 1
  27   14   17 ar
  28   14   35 1
  29   15   18 1
  30   16   17 ar
  31   16   36 1
  32   17   37 1
  33   18   19 ar
  34   18   21 ar
  35   19   20 ar
  36   19   38 1
  37   20   22 ar
  38   21   23 ar
  39   21   39 1
  40   22   23 ar
  41   23   40 1
  42   24   25 1
  43   24   41 1
  44   24   42 1
  45   25   43 1
  46   25   44 1

#	End of record

#	Name: 6603009
#	Creating user name:	landrgr1
#	Creation time:	28. 01. 2015 13:52

#	Modifying user name:	landrgr1
#	Modification time:	28. 01. 2015 13:52

#	Program:	corina 3.48 0006  22.01.2010

@<TRIPOS>MOLECULE
6603009
  58   60    0    0    0
SMALL
NO_CHARGES


@<TRIPOS>ATOM
   1 Cl1            0.0000     0.0000     0.0000 Cl      
   2 H2             0.0000     1.3700     0.0000 H       
   3 S3             9.9605    10.3169    12.4735 S.o2    
   4 O4            14.0023    13.7101     6.2824 O.3     
   5 O5            10.0300    10.7005     8.3394 O.3     
   6 O6             9.9779     8.9123    12.6879 O.2     
   7 O7            11.1394    11.1074    12.4056 O.2     
   8 N8            11.6228    12.9406     7.5605 N.3     
   9 N9             9.1500    10.5628    11.0505 N.am    
  10 C10           10.5491    13.0508     8.5570 C.3     
  11 C11           10.3871    11.7133     9.2821 C.3     
  12 C12            9.2881    11.8362    10.3395 C.3     
  13 C13           12.9250    12.7317     8.2100 C.3     
  14 C14           11.6584    14.1257     6.6912 C.3     
  15 C15           14.0034    12.5630     7.1365 C.3     
  16 C16           12.7496    13.9431     5.6330 C.3     
  17 C17            8.3346     9.5562    10.5283 C.ar    
  18 C18            8.9739    11.0045    13.7613 C.ar    
  19 C19            8.1182    10.2021    14.4512 C.ar    
  20 C20            9.0859    12.3610    14.0619 C.ar    
  21 C21            8.8789     8.3224    10.1948 C.ar    
  22 C22            6.9765     9.7846    10.3465 C.ar    
  23 C23            7.3301    10.7472    15.4793 C.ar    
  24 C24            7.4400    12.1277    15.7814 C.ar    
  25 C25            8.3389    12.9235    15.0506 C.ar    
  26 C26            8.0699     7.3293     9.6786 C.ar    
  27 C27            6.1732     8.7871     9.8299 C.ar    
  28 C28            6.4351     9.9507    16.2132 C.ar    
  29 C29            6.7194     7.5620     9.4936 C.ar    
  30 C30            6.6523    12.6728    16.8092 C.ar    
  31 C31            5.6875    10.5136    17.2018 C.ar    
  32 C32            5.7962    11.8704    17.4994 C.ar    
  33 H33           10.8017    13.8273     9.2790 H       
  34 H34            9.6151    13.3088     8.0578 H       
  35 H35           11.3271    11.4454     9.7645 H       
  36 H36            8.3442    12.0861     9.8550 H       
  37 H37            9.5519    12.6213    11.0481 H       
  38 H38           13.1634    13.5936     8.8332 H       
  39 H39           12.8836    11.8350     8.8284 H       
  40 H40           10.6924    14.2467     6.2009 H       
  41 H41           11.8765    15.0100     7.2901 H       
  42 H42           13.7940    11.6703     6.5473 H       
  43 H43           14.9789    12.4649     7.6128 H       
  44 H44           12.8182    14.8431     5.0219 H       
  45 H45           12.5036    13.0905     5.0000 H       
  46 H46            9.2434    10.9092     7.8170 H       
  47 H47            8.0449     9.1520    14.2096 H       
  48 H48            9.7760    12.9746    13.5020 H       
  49 H49            9.9337     8.1402    10.3387 H       
  50 H50            6.5493    10.7411    10.6093 H       
  51 H51            8.4367    13.9759    15.2728 H       
  52 H52            8.4925     6.3700     9.4188 H       
  53 H53            5.1172     8.9640     9.6887 H       
  54 H54            6.3405     8.8974    15.9939 H       
  55 H55            6.7258    13.7229    17.0506 H       
  56 H56            6.0889     6.7836     9.0898 H       
  57 H57            5.0000     9.8991    17.7642 H       
  58 H58            5.1918    12.2919    18.2889 H       
@<TRIPOS>BOND
   1    1    2 1
   2    3    6 2
   3    3    7 2
   4    3    9 am
   5    3   18 1
   6    4   15 1
   7    4   16 1
   8    5   11 1
   9    5   46 1
  10    8   10 1
  11    8   13 1
  12    8   14 1
  13    9   12 1
  14    9   17 1
  15   10   11 1
  16   10   33 1
  17   10   34 1
  18   11   12 1
  19   11   35 1
  20   12   36 1
  21   12   37 1
  22   13   15 1
  23   13   38 1
  24   13   39 1
  25   14   16 1
  26   14   40 1
  27   14   41 1
  28   15   42 1
  29   15   43 1
  30   16   44 1
  31   16   45 1
  32   17   21 ar
  33   17   22 ar
  34   18   19 ar
  35   18   20 ar
  36   19   23 ar
  37   19   47 1
  38   20   25 ar
  39   20   48 1
  40   21   26 ar
  41   21   49 1
  42   22   27 ar
  43   22   50 1
  44   23   24 ar
  45   23   28 ar
  46   24   25 ar
  47   24   30 ar
  48   25   51 1
  49   26   29 ar
  50   26   52 1
  51   27   29 ar
  52   27   53 1
  53   28   31 ar
  54   28   54 1
  55   29   56 1
  56   30   32 ar
  57   30   55 1
  58   31   32 ar
  59   31   57 1
  60   32   58 1

#	End of record

#	Name: 6603002
#	Creating user name:	landrgr1
#	Creation time:	28. 01. 2015 13:52

#	Modifying user name:	landrgr1
#	Modification time:	28. 01. 2015 13:52

#	Program:	corina 3.48 0006  22.01.2010

@<TRIPOS>MOLECULE
6603002
  40   41    0    0    0
SMALL
NO_CHARGES


@<TRIPOS>ATOM
   1 Cl1            0.0000     0.0000     0.0000 Cl      
   2 H2             0.0000     1.3700     0.0000 H       
   3 S3             7.5617    10.5636     5.0000 S.3     
   4 O4             9.2821     8.8070    12.8554 O.3     
   5 O5             7.7710    11.0023     9.3125 O.2     
   6 N6             7.4232    12.1108     6.9612 N.pl3   
   7 N7             8.1751    12.8312    10.5016 N.am    
   8 N8             9.7070    11.7302     6.3172 N.2     
   9 C9             7.7244    13.0120     8.0762 C.3     
  10 C10            8.2402    12.0971    11.6910 C.ar    
  11 C11            7.8916    12.2088     9.3403 C.2     
  12 C12            8.7350    10.8009    11.6810 C.ar    
  13 C13            8.7985    10.0768    12.8618 C.ar    
  14 C14            7.8149    12.6673    12.8845 C.ar    
  15 C15            6.1405    11.7787     6.6344 C.2     
  16 C16            8.4136    11.5597     6.1951 C.2     
  17 C17            8.3673    10.6497    14.0501 C.ar    
  18 C18            7.8801    11.9430    14.0588 C.ar    
  19 C19            5.9467    10.9592     5.6149 C.2     
  20 C20            9.4190     8.1705    14.0482 C.ar    
  21 C21            8.3010     7.6757    14.7043 C.ar    
  22 C22           10.6778     8.0092    14.6094 C.ar    
  23 C23            8.4430     7.0291    15.9167 C.ar    
  24 C24           10.8142     7.3619    15.8220 C.ar    
  25 C25            9.6978     6.8752    16.4768 C.ar    
  26 H26            8.6460    13.5547     7.8660 H       
  27 H27            6.9059    13.7209     8.2017 H       
  28 H28            8.3339    13.7880    10.5129 H       
  29 H29            9.0698    10.3567    10.7553 H       
  30 H30            7.4334    13.6776    12.8940 H       
  31 H31            5.3058    12.1746     7.1938 H       
  32 H32            8.4163    10.0856    14.9697 H       
  33 H33            7.5496    12.3882    14.9856 H       
  34 H34            5.0000    10.6045     5.2350 H       
  35 H35            7.3206     7.7963    14.2676 H       
  36 H36           11.5501     8.3892    14.0984 H       
  37 H37            7.5731     6.6439    16.4278 H       
  38 H38           11.7937     7.2361    16.2593 H       
  39 H39            9.8065     6.3700    17.4251 H       
  40 H40           10.3149    11.2825     5.7083 H       
@<TRIPOS>BOND
   1    1    2 1
   2    3   16 1
   3    3   19 1
   4    4   13 1
   5    4   20 1
   6    5   11 2
   7    6    9 1
   8    6   15 1
   9    6   16 1
  10    7   10 1
  11    7   11 am
  12    7   28 1
  13    8   16 2
  14    8   40 1
  15    9   11 1
  16    9   26 1
  17    9   27 1
  18   10   12 ar
  19   10   14 ar
  20   12   13 ar
  21   12   29 1
  22   13   17 ar
  23   14   18 ar
  24   14   30 1
  25   15   19 2
  26   15   31 1
  27   17   18 ar
  28   17   32 1
  29   18   33 1
  30   19   34 1
  31   20   21 ar
  32   20   22 ar
  33   21   23 ar
  34   21   35 1
  35   22   24 ar
  36   22   36 1
  37   23   25 ar
  38   23   37 1
  39   24   25 ar
  40   24   38 1
  41   25   39 1

#	End of record

#	Name: 6602983
#	Creating user name:	landrgr1
#	Creation time:	28. 01. 2015 13:52

#	Modifying user name:	landrgr1
#	Modification time:	28. 01. 2015 13:52

#	Program:	corina 3.48 0006  22.01.2010

@<TRIPOS>MOLECULE
6602983
  68   70    0    0    0
SMALL
NO_CHARGES


@<TRIPOS>ATOM
   1 Cl1            0.0000     0.0000     0.0000 Cl      
   2 H2             0.0000     1.3700     0.0000 H       
   3 O3            18.8264    10.1884    10.4920 O.2     
   4 O4            12.2513     9.6144     7.9869 O.2     
   5 O5             9.1751    13.5983     6.7152 O.3     
   6 O6             7.0050    11.9056     6.8273 O.3     
   7 N7            17.1645     8.3307     9.6610 N.3     
   8 N8            14.0556     8.9434     6.8840 N.am    
   9 N9            19.5954     9.1731    12.3086 N.am    
  10 C10           14.7282     8.5603     8.1278 C.3     
  11 C11           15.7731     7.4806     7.8329 C.3     
  12 C12           15.4255     9.7833     8.7301 C.3     
  13 C13           16.5141     7.1283     9.1248 C.3     
  14 C14           16.1765     9.3642     9.9960 C.3     
  15 C15           17.9990     8.0033    10.8247 C.3     
  16 C16           18.8360     9.2004    11.1954 C.2     
  17 C17           19.5162     8.0389    13.2393 C.3     
  18 C18           19.4591     8.6053    14.6641 C.3     
  19 C19           20.4782    10.2236    12.5950 C.ar    
  20 C20           20.7595     9.3560    14.9499 C.3     
  21 C21           21.0529    10.3459    13.8504 C.ar    
  22 C22           12.8128     9.4635     6.9225 C.2     
  23 C23           12.1210     9.8576     5.6430 C.3     
  24 C24           20.7741    11.1491    11.6012 C.ar    
  25 C25           21.9180    11.3964    14.1064 C.ar    
  26 C26           21.6395    12.1925    11.8640 C.ar    
  27 C27           22.2098    12.3160    13.1174 C.ar    
  28 C28           10.7541    10.4075     5.9599 C.ar    
  29 C29           10.5922    11.7604     6.1933 C.ar    
  30 C30            9.6640     9.5588     6.0108 C.ar    
  31 C31            9.3361    12.2677     6.4848 C.ar    
  32 C32            8.4081    10.0584     6.3010 C.ar    
  33 C33            8.2398    11.4125     6.5417 C.ar    
  34 C34           10.3448    14.4158     6.6405 C.3     
  35 C35            5.9262    10.9694     6.8689 C.3     
  36 H36           13.9941     8.1735     8.8347 H       
  37 H37           15.2775     6.5913     7.4436 H       
  38 H38           16.4840     7.8538     7.0958 H       
  39 H39           16.1309    10.1927     8.0071 H       
  40 H40           14.6815    10.5391     8.9818 H       
  41 H41           17.2685     6.3700     8.9155 H       
  42 H42           15.8046     6.7422     9.8567 H       
  43 H43           15.4686     8.9677    10.7238 H       
  44 H44           16.6858    10.2299    10.4194 H       
  45 H45           17.3602     7.7324    11.6653 H       
  46 H46           18.6517     7.1655    10.5796 H       
  47 H47           14.5047     8.8227     6.0327 H       
  48 H48           18.6168     7.4573    13.0369 H       
  49 H49           20.3978     7.4077    13.1279 H       
  50 H50           18.6155     9.2899    14.7514 H       
  51 H51           19.3445     7.7889    15.3772 H       
  52 H52           20.6685     9.8849    15.8986 H       
  53 H53           21.5805     8.6418    15.0141 H       
  54 H54           12.7094    10.6192     5.1315 H       
  55 H55           12.0207     8.9832     5.0000 H       
  56 H56           20.3273    11.0519    10.6228 H       
  57 H57           22.3664    11.4975    15.0837 H       
  58 H58           21.8704    12.9112    11.0916 H       
  59 H59           22.8852    13.1330    13.3238 H       
  60 H60           11.4447    12.4219     6.1489 H       
  61 H61            9.7938     8.5032     5.8230 H       
  62 H62            7.5581     9.3933     6.3398 H       
  63 H63           10.7769    14.3415     5.6426 H       
  64 H64           10.0771    15.4525     6.8443 H       
  65 H65           11.0727    14.0768     7.3777 H       
  66 H66            5.0000    11.4926     7.1065 H       
  67 H67            5.8299    10.4827     5.8983 H       
  68 H68            6.1259    10.2187     7.6335 H       
@<TRIPOS>BOND
   1    1    2 1
   2    3   16 2
   3    4   22 2
   4    5   31 1
   5    5   34 1
   6    6   33 1
   7    6   35 1
   8    7   13 1
   9    7   14 1
  10    7   15 1
  11    8   10 1
  12    8   22 am
  13    8   47 1
  14    9   16 am
  15    9   17 1
  16    9   19 1
  17   10   11 1
  18   10   12 1
  19   10   36 1
  20   11   13 1
  21   11   37 1
  22   11   38 1
  23   12   14 1
  24   12   39 1
  25   12   40 1
  26   13   41 1
  27   13   42 1
  28   14   43 1
  29   14   44 1
  30   15   16 1
  31   15   45 1
  32   15   46 1
  33   17   18 1
  34   17   48 1
  35   17   49 1
  36   18   20 1
  37   18   50 1
  38   18   51 1
  39   19   21 ar
  40   19   24 ar
  41   20   21 1
  42   20   52 1
  43   20   53 1
  44   21   25 ar
  45   22   23 1
  46   23   28 1
  47   23   54 1
  48   23   55 1
  49   24   26 ar
  50   24   56 1
  51   25   27 ar
  52   25   57 1
  53   26   27 ar
  54   26   58 1
  55   27   59 1
  56   28   29 ar
  57   28   30 ar
  58   29   31 ar
  59   29   60 1
  60   30   32 ar
  61   30   61 1
  62   31   33 ar
  63   32   33 ar
  64   32   62 1
  65   34   63 1
  66   34   64 1
  67   34   65 1
  68   35   66 1
  69   35   67 1
  70   35   68 1

#	End of record

#	Name: 6602958
#	Creating user name:	landrgr1
#	Creation time:	28. 01. 2015 13:52

#	Modifying user name:	landrgr1
#	Modification time:	28. 01. 2015 13:52

#	Program:	corina 3.48 0006  22.01.2010

@<TRIPOS>MOLECULE
6602958
  50   51    0    0    0
SMALL
NO_CHARGES


@<TRIPOS>ATOM
   1 Cl1            0.0000     0.0000     0.0000 Cl      
   2 H2             0.0000     1.3700     0.0000 H       
   3 O3             8.3510     9.4502     6.8242 O.3     
   4 O4             9.2760    12.1481     7.5850 O.3     
   5 O5             7.8630    14.6325     7.2839 O.3     
   6 N6             8.3269    16.5540     9.4002 N.3     
   7 N7             7.0847    19.4495     9.6073 N.ar    
   8 C8             8.3705     8.0127     6.8163 C.3     
   9 C9             9.7063     7.6927     6.1045 C.3     
  10 C10           10.5194     8.9409     6.3887 C.ar    
  11 C11            9.6308     9.9170     6.8144 C.ar    
  12 C12            8.3717     7.4626     8.2440 C.3     
  13 C13            7.1864     7.4588     6.0213 C.3     
  14 C14           10.1270    11.1773     7.1576 C.ar    
  15 C15           11.8688     9.2074     6.2931 C.ar    
  16 C16           11.4820    11.4396     7.0639 C.ar    
  17 C17           12.3542    10.4577     6.6310 C.ar    
  18 C18            9.8504    13.4132     7.9193 C.3     
  19 C19            8.7469    14.3697     8.3755 C.3     
  20 C20            9.3738    15.6818     8.8513 C.3     
  21 C21            8.8934    17.8260     9.8681 C.3     
  22 C22            7.7922    18.6923    10.4231 C.ar    
  23 C23            7.5357    18.6845    11.7809 C.ar    
  24 C24            6.5203    19.4853    12.2814 C.ar    
  25 C25            6.1118    20.2228    10.0478 C.ar    
  26 C26            5.7980    20.2671    11.3932 C.ar    
  27 H27           10.1789     6.8124     6.5402 H       
  28 H28            9.5552     7.5618     5.0329 H       
  29 H29            7.4624     7.7780     8.7556 H       
  30 H30            8.4126     6.3738     8.2138 H       
  31 H31            9.2409     7.8442     8.7796 H       
  32 H32            7.2254     7.8377     5.0000 H       
  33 H33            7.2358     6.3700     6.0070 H       
  34 H34            6.2545     7.7741     6.4905 H       
  35 H35           12.5477     8.4388     5.9544 H       
  36 H36           11.8604    12.4154     7.3304 H       
  37 H37           13.4111    10.6667     6.5563 H       
  38 H38           10.5737    13.2825     8.7242 H       
  39 H39           10.3514    13.8273     7.0443 H       
  40 H40            8.1883    13.9161     9.1942 H       
  41 H41            9.8573    16.1793     8.0106 H       
  42 H42           10.1137    15.4718     9.6237 H       
  43 H43            7.5955    16.7111     8.7232 H       
  44 H44            9.6299    17.6310    10.6475 H       
  45 H45            9.3736    18.3384     9.0345 H       
  46 H46            8.2930    15.0374     6.5182 H       
  47 H47            8.1186    18.0623    12.4438 H       
  48 H48            6.2971    19.4992    13.3380 H       
  49 H49            5.5544    20.8294     9.3494 H       
  50 H50            5.0000    20.9025    11.7480 H       
@<TRIPOS>BOND
   1    1    2 1
   2    3    8 1
   3    3   11 1
   4    4   14 1
   5    4   18 1
   6    5   19 1
   7    5   46 1
   8    6   20 1
   9    6   21 1
  10    6   43 1
  11    7   22 ar
  12    7   25 ar
  13    8    9 1
  14    8   12 1
  15    8   13 1
  16    9   10 1
  17    9   27 1
  18    9   28 1
  19   10   11 ar
  20   10   15 ar
  21   11   14 ar
  22   12   29 1
  23   12   30 1
  24   12   31 1
  25   13   32 1
  26   13   33 1
  27   13   34 1
  28   14   16 ar
  29   15   17 ar
  30   15   35 1
  31   16   17 ar
  32   16   36 1
  33   17   37 1
  34   18   19 1
  35   18   38 1
  36   18   39 1
  37   19   20 1
  38   19   40 1
  39   20   41 1
  40   20   42 1
  41   21   22 1
  42   21   44 1
  43   21   45 1
  44   22   23 ar
  45   23   24 ar
  46   23   47 1
  47   24   26 ar
  48   24   48 1
  49   25   26 ar
  50   25   49 1
  51   26   50 1

#	End of record

#	Name: 6602954
#	Creating user name:	landrgr1
#	Creation time:	28. 01. 2015 13:52

#	Modifying user name:	landrgr1
#	Modification time:	28. 01. 2015 13:52

#	Program:	corina 3.48 0006  22.01.2010

@<TRIPOS>MOLECULE
6602954
  24   23    0    0    0
SMALL
NO_CHARGES


@<TRIPOS>ATOM
   1 Cl1            0.0000     0.0000     0.0000 Cl      
   2 H2             0.0000     1.3700     0.0000 H       
   3 O3             8.2329    13.5726     5.9343 O.3     
   4 O4             8.3130     8.0799     5.9132 O.3     
   5 N5             5.8326    12.1798     5.9507 N.pl3   
   6 C6             7.0549    11.4984     5.9344 C.ar    
   7 C7             8.2514    12.2118     5.9269 C.ar    
   8 C8             8.2899     9.4395     5.9156 C.ar    
   9 C9             7.0774    10.1116     5.9316 C.ar    
  10 C10            9.4595    11.5353     5.9112 C.ar    
  11 C11            9.4793    10.1528     5.9027 C.ar    
  12 C12            9.4972    14.2386     5.9258 C.3     
  13 C13            9.5969     7.4529     5.8963 C.3     
  14 H14            6.1513     9.5560     5.9420 H       
  15 H15           10.3872    12.0882     5.9053 H       
  16 H16           10.4228     9.6273     5.8905 H       
  17 H17            5.8180    13.1496     5.9567 H       
  18 H18            5.0000    11.6821     5.9560 H       
  19 H19           10.0496    13.9581     5.0290 H       
  20 H20            9.3397    15.3171     5.9331 H       
  21 H21           10.0666    13.9486     6.8089 H       
  22 H22           10.1599     7.7539     6.7798 H       
  23 H23            9.4725     6.3700     5.8963 H       
  24 H24           10.1378     7.7565     5.0000 H       
@<TRIPOS>BOND
   1    1    2 1
   2    3    7 1
   3    3   12 1
   4    4    8 1
   5    4   13 1
   6    5    6 1
   7    5   17 1
   8    5   18 1
   9    6    7 ar
  10    6    9 ar
  11    7   10 ar
  12    8    9 ar
  13    8   11 ar
  14    9   14 1
  15   10   11 ar
  16   10   15 1
  17   11   16 1
  18   12   19 1
  19   12   20 1
  20   12   21 1
  21   13   22 1
  22   13   23 1
  23   13   24 1

#	End of record

#	Name: 6602941
#	Creating user name:	landrgr1
#	Creation time:	28. 01. 2015 13:52

#	Modifying user name:	landrgr1
#	Modification time:	28. 01. 2015 13:52

#	Program:	corina 3.48 0006  22.01.2010

@<TRIPOS>MOLECULE
6602941
  53   54    0    0    0
SMALL
NO_CHARGES


@<TRIPOS>ATOM
   1 Cl1            0.0000     0.0000     0.0000 Cl      
   2 H2             0.0000     1.3700     0.0000 H       
   3 S3            11.4073    15.4014    11.7538 S.3     
   4 O4            12.7759    11.6436     9.9706 O.2     
   5 N5            10.0105    13.0485    11.7785 N.2     
   6 N6            12.3486    13.0511    12.1420 N.pl3   
   7 N7            12.7959     9.6157    10.8703 N.am    
   8 C8             8.7948    13.8206    11.5102 C.3     
   9 C9             8.1756    13.3548    10.1909 C.3     
  10 C10            7.7935    13.6068    12.6471 C.3     
  11 C11            6.9058    14.1612     9.9107 C.3     
  12 C12            6.5238    14.4131    12.3669 C.3     
  13 C13            5.9046    13.9473    11.0476 C.3     
  14 C14           11.1578    13.6580    11.8944 C.2     
  15 C15           13.5279    13.8808    12.2398 C.3     
  16 C16           13.2046    15.3652    12.0368 C.3     
  17 C17           12.4342    11.5977    12.3053 C.3     
  18 C18           13.9490    15.9126    10.8173 C.3     
  19 C19           12.6809    10.9552    10.9647 C.2     
  20 C20           12.9144     9.0104     9.6144 C.ar    
  21 C21           13.6777     7.8598     9.4657 C.ar    
  22 C22           12.2644     9.5557     8.5150 C.ar    
  23 C23           13.1493     7.8138     7.1307 C.ar    
  24 C24           13.7928     7.2648     8.2246 C.ar    
  25 C25           12.3834     8.9559     7.2766 C.ar    
  26 C26           13.2778     7.1625     5.7778 C.3     
  27 H27            9.0447    14.8793    11.4404 H       
  28 H28            8.8889    13.5071     9.3809 H       
  29 H29            7.9256    12.2961    10.2606 H       
  30 H30            7.5436    12.5481    12.7168 H       
  31 H31            8.2346    13.9386    13.5870 H       
  32 H32            7.1558    15.2198     9.8409 H       
  33 H33            6.4647    13.8293     8.9708 H       
  34 H34            5.8104    14.2608    13.1768 H       
  35 H35            6.7737    15.4718    12.2971 H       
  36 H36            5.0000    14.5218    10.8479 H       
  37 H37            5.6546    12.8887    11.1173 H       
  38 H38           13.9749    13.7468    13.2249 H       
  39 H39           14.2458    13.5674    11.4818 H       
  40 H40           13.4612    15.9364    12.9289 H       
  41 H41           13.2547    11.3557    12.9807 H       
  42 H42           11.4988    11.2232    12.7211 H       
  43 H43           13.6589    16.9499    10.6500 H       
  44 H44           15.0233    15.8597    10.9935 H       
  45 H45           13.6950    15.3182     9.9396 H       
  46 H46           12.7965     9.0712    11.6731 H       
  47 H47           14.1811     7.4310    10.3195 H       
  48 H48           11.6662    10.4477     8.6283 H       
  49 H49           14.3862     6.3700     8.1083 H       
  50 H50           11.8779     9.3793     6.4213 H       
  51 H51           12.4807     6.4301     5.6500 H       
  52 H52           13.2012     7.9223     5.0000 H       
  53 H53           14.2444     6.6640     5.7049 H       
@<TRIPOS>BOND
   1    1    2 1
   2    3   14 1
   3    3   16 1
   4    4   19 2
   5    5    8 1
   6    5   14 2
   7    6   14 1
   8    6   15 1
   9    6   17 1
  10    7   19 am
  11    7   20 1
  12    7   46 1
  13    8    9 1
  14    8   10 1
  15    8   27 1
  16    9   11 1
  17    9   28 1
  18    9   29 1
  19   10   12 1
  20   10   30 1
  21   10   31 1
  22   11   13 1
  23   11   32 1
  24   11   33 1
  25   12   13 1
  26   12   34 1
  27   12   35 1
  28   13   36 1
  29   13   37 1
  30   15   16 1
  31   15   38 1
  32   15   39 1
  33   16   18 1
  34   16   40 1
  35   17   19 1
  36   17   41 1
  37   17   42 1
  38   18   43 1
  39   18   44 1
  40   18   45 1
  41   20   21 ar
  42   20   22 ar
  43   21   24 ar
  44   21   47 1
  45   22   25 ar
  46   22   48 1
  47   23   24 ar
  48   23   25 ar
  49   23   26 1
  50   24   49 1
  51   25   50 1
  52   26   51 1
  53   26   52 1
  54   26   53 1

#	End of record

#	Name: 6602927
#	Creating user name:	landrgr1
#	Creation time:	28. 01. 2015 13:52

#	Modifying user name:	landrgr1
#	Modification time:	28. 01. 2015 13:52

#	Program:	corina 3.48 0006  22.01.2010

@<TRIPOS>MOLECULE
6602927
  26   27    0    0    0
SMALL
NO_CHARGES


@<TRIPOS>ATOM
   1 Br1            0.0000     0.0000     0.0000 Br      
   2 H2             0.0000     1.5100     0.0000 H       
   3 Cl3           12.8717    11.9904     5.8730 Cl      
   4 Cl4           13.9488     9.0657     5.8460 Cl      
   5 S5             5.8048    11.1435     5.9364 S.3     
   6 N6             7.1479     9.0143     5.9121 N.pl3   
   7 N7             5.0000     8.3554     5.9287 N.2     
   8 C8             7.2177     7.5287     5.9030 C.3     
   9 C9             8.0488    10.0700     5.9092 C.2     
  10 C10            5.7438     7.0926     5.9145 C.3     
  11 C11            5.8290     9.3658     5.9266 C.2     
  12 C12            9.5067     9.8225     5.8934 C.ar    
  13 C13            7.5673    11.3110     5.9204 C.2     
  14 C14           10.3991    10.8952     5.8907 C.ar    
  15 C15            9.9953     8.5149     5.8871 C.ar    
  16 C16           11.7592    10.6577     5.8765 C.ar    
  17 C17           11.3561     8.2896     5.8729 C.ar    
  18 C18           12.2376     9.3574     5.8645 C.ar    
  19 H19            7.7148     7.1744     5.0000 H       
  20 H20            7.7318     7.1642     6.7924 H       
  21 H21            5.5247     6.5100     6.8093 H       
  22 H22            5.5077     6.5202     5.0175 H       
  23 H23            8.1345    12.2301     5.9200 H       
  24 H24           10.0268    11.9090     5.8993 H       
  25 H25            9.3091     7.6810     5.8937 H       
  26 H26           11.7347     7.2782     5.8684 H       
@<TRIPOS>BOND
   1    1    2 1
   2    3   16 1
   3    4   18 1
   4    5   11 1
   5    5   13 1
   6    6    8 1
   7    6    9 1
   8    6   11 1
   9    7   10 1
  10    7   11 2
  11    8   10 1
  12    8   19 1
  13    8   20 1
  14    9   12 1
  15    9   13 2
  16   10   21 1
  17   10   22 1
  18   12   14 ar
  19   12   15 ar
  20   13   23 1
  21   14   16 ar
  22   14   24 1
  23   15   17 ar
  24   15   25 1
  25   16   18 ar
  26   17   18 ar
  27   17   26 1

#	End of record

#	Name: 6602854
#	Creating user name:	landrgr1
#	Creation time:	28. 01. 2015 13:52

#	Modifying user name:	landrgr1
#	Modification time:	28. 01. 2015 13:52

#	Program:	corina 3.48 0006  22.01.2010

@<TRIPOS>MOLECULE
6602854
  21   20    0    0    0
SMALL
NO_CHARGES


@<TRIPOS>ATOM
   1 Cl1            0.0000     0.0000     0.0000 Cl      
   2 H2             0.0000     1.3700     0.0000 H       
   3 S3             5.8417    12.6964     8.4809 S.3     
   4 O4             8.9295     7.5894     7.0588 O.3     
   5 O5             8.7376     9.7241     6.5205 O.2     
   6 N6             8.0206    11.5216     8.4538 N.2     
   7 N7             8.3223    13.8820     8.4632 N.pl3   
   8 C8             7.5383     9.0852     8.4453 C.3     
   9 C9             7.1383    10.5381     8.4570 C.2     
  10 C10            5.8655    10.9350     8.4713 C.2     
  11 C11            8.4457     8.8233     7.2710 C.2     
  12 C12            7.5509    12.7303     8.4648 C.2     
  13 C13            9.7974     7.4105     5.9085 C.3     
  14 H14            8.0627     8.8453     9.3703 H       
  15 H15            6.6468     8.4636     8.3614 H       
  16 H16            5.0000    10.2891     8.4766 H       
  17 H17            7.8943    14.7524     8.4720 H       
  18 H18            9.2901    13.8175     8.4533 H       
  19 H19           10.6711     8.0544     6.0089 H       
  20 H20           10.1173     6.3700     5.8531 H       
  21 H21            9.2552     7.6728     5.0000 H       
@<TRIPOS>BOND
   1    1    2 1
   2    3   10 1
   3    3   12 1
   4    4   11 1
   5    4   13 1
   6    5   11 2
   7    6    9 1
   8    6   12 2
   9    7   12 1
  10    7   17 1
  11    7   18 1
  12    8    9 1
  13    8   11 1
  14    8   14 1
  15    8   15 1
  16    9   10 2
  17   10   16 1
  18   13   19 1
  19   13   20 1
  20   13   21 1

#	End of record

#	Name: 6602836
#	Creating user name:	landrgr1
#	Creation time:	28. 01. 2015 13:52

#	Modifying user name:	landrgr1
#	Modification time:	28. 01. 2015 13:52

#	Program:	corina 3.48 0006  22.01.2010

@<TRIPOS>MOLECULE
6602836
  52   51    0    0    0
SMALL
NO_CHARGES


@<TRIPOS>ATOM
   1 Cl1            0.0000     0.0000     0.0000 Cl      
   2 H2             0.0000     1.3700     0.0000 H       
   3 O3            17.1610    13.4697     8.0232 O.3     
   4 O4            18.2336    11.5377     8.0026 O.2     
   5 O5             8.8574    10.8410    12.9238 O.3     
   6 O6            16.3533     9.9034     5.8025 O.2     
   7 O7             9.0693     9.8057    10.9722 O.2     
   8 N8            16.1717     9.9198     8.0136 N.am    
   9 N9            10.7989    11.0260    11.6431 N.am    
  10 N10           16.8890     7.3584     5.4504 N.3     
  11 C11           15.0892    11.7083     9.2828 C.3     
  12 C12           13.7224    11.0227     9.2309 C.3     
  13 C13           15.8845    11.3564     8.0240 C.3     
  14 C14           12.9272    11.3746    10.4897 C.3     
  15 C15           11.5604    10.6890    10.4378 C.3     
  16 C16           17.1792    12.1275     8.0158 C.2     
  17 C17           16.3924     9.2852     6.8452 C.2     
  18 C18           16.6879     7.8075     6.8345 C.3     
  19 C19            9.5572    10.5313    11.8160 C.2     
  20 C20           18.4456    14.1464     8.0146 C.3     
  21 C21            7.5266    10.2724    13.0432 C.3     
  22 C22            6.9009    10.7260    14.3370 C.ar    
  23 C23            6.1556    11.8897    14.3736 C.ar    
  24 C24            7.0674     9.9754    15.4858 C.ar    
  25 C25            5.5817    12.3058    15.5603 C.ar    
  26 C26            6.4934    10.3915    16.6725 C.ar    
  27 C27            5.7526    11.5580    16.7103 C.ar    
  28 H28           14.9521    12.7884     9.3359 H       
  29 H29           15.6335    11.3675    10.1636 H       
  30 H30           13.1782    11.3635     8.3502 H       
  31 H31           13.8595     9.9426     9.1779 H       
  32 H32           15.3009    11.6167     7.1410 H       
  33 H33           13.4714    11.0338    11.3705 H       
  34 H34           12.7901    12.4547    10.5428 H       
  35 H35           11.6975     9.6089    10.3848 H       
  36 H36           11.0161    11.0298     9.5571 H       
  37 H37           16.2030     9.4254     8.8475 H       
  38 H38           11.1884    11.6051    12.3168 H       
  39 H39           15.8500     7.2663     7.2739 H       
  40 H40           17.5901     7.6131     7.4143 H       
  41 H41            6.9128    10.6054    12.2063 H       
  42 H42            7.5941     9.1846    13.0341 H       
  43 H43           19.0150    13.8564     8.8976 H       
  44 H44           18.9980    13.8659     7.1178 H       
  45 H45           18.2882    15.2250     8.0219 H       
  46 H46           17.6185     7.8905     5.0000 H       
  47 H47           17.0888     6.3700     5.4163 H       
  48 H48            6.0221    12.4740    13.4752 H       
  49 H49            7.6457     9.0638    15.4561 H       
  50 H50            5.0000    13.2153    15.5891 H       
  51 H51            6.6233     9.8049    17.5700 H       
  52 H52            5.3044    11.8832    17.6375 H       
@<TRIPOS>BOND
   1    1    2 1
   2    3   16 1
   3    3   20 1
   4    4   16 2
   5    5   19 1
   6    5   21 1
   7    6   17 2
   8    7   19 2
   9    8   13 1
  10    8   17 am
  11    8   37 1
  12    9   15 1
  13    9   19 am
  14    9   38 1
  15   10   18 1
  16   10   46 1
  17   10   47 1
  18   11   12 1
  19   11   13 1
  20   11   28 1
  21   11   29 1
  22   12   14 1
  23   12   30 1
  24   12   31 1
  25   13   16 1
  26   13   32 1
  27   14   15 1
  28   14   33 1
  29   14   34 1
  30   15   35 1
  31   15   36 1
  32   17   18 1
  33   18   39 1
  34   18   40 1
  35   20   43 1
  36   20   44 1
  37   20   45 1
  38   21   22 1
  39   21   41 1
  40   21   42 1
  41   22   23 ar
  42   22   24 ar
  43   23   25 ar
  44   23   48 1
  45   24   26 ar
  46   24   49 1
  47   25   27 ar
  48   25   50 1
  49   26   27 ar
  50   26   51 1
  51   27   52 1

#	End of record

#	Name: 6602794
#	Creating user name:	landrgr1
#	Creation time:	28. 01. 2015 13:52

#	Modifying user name:	landrgr1
#	Modification time:	28. 01. 2015 13:52

#	Program:	corina 3.48 0006  22.01.2010

@<TRIPOS>MOLECULE
6602794
  48   50    0    0    0
SMALL
NO_CHARGES


@<TRIPOS>ATOM
   1 Cl1            0.0000     0.0000     0.0000 Cl      
   2 H2             0.0000     1.3700     0.0000 H       
   3 O3             6.0029    10.5287    13.5275 O.3     
   4 O4            14.8752    11.2031     9.2426 O.3     
   5 N5             8.1217     9.1857    12.2648 N.3     
   6 N6            12.2386     9.7518     9.6797 N.pl3   
   7 N7            12.8788     8.5046     7.7824 N.ar    
   8 N8            14.8551     8.8768     6.6525 N.ar    
   9 C9             8.8928     8.6965    11.1141 C.3     
  10 C10            6.7688     8.6107    12.2753 C.3     
  11 C11            8.0635    10.6546    12.2739 C.3     
  12 C12           10.1918     9.4959    10.9936 C.3     
  13 C13            6.0223     9.0987    13.5197 C.3     
  14 C14            7.3041    11.1222    13.5183 C.3     
  15 C15           10.9948     8.9864     9.7951 C.3     
  16 C16           13.1352     9.4680     8.6609 C.ar    
  17 C17           14.3277    10.1917     8.5381 C.ar    
  18 C18           15.1898     9.8567     7.4881 C.ar    
  19 C19           16.3390    10.7691     7.6106 C.ar    
  20 C20           16.0670    11.5753     8.7266 C.ar    
  21 C21           13.7227     8.2236     6.8071 C.ar    
  22 C22           17.5155    10.9463     6.8889 C.ar    
  23 C23           16.9859    12.5496     9.0986 C.ar    
  24 C24           18.4146    11.9179     7.2742 C.ar    
  25 C25           18.1479    12.7161     8.3756 C.ar    
  26 C26           13.3790     7.1201     5.8400 C.3     
  27 H27            9.1272     7.6415    11.2558 H       
  28 H28            8.3050     8.8191    10.2044 H       
  29 H29            6.2318     8.9273    11.3812 H       
  30 H30            6.8357     7.5229    12.2943 H       
  31 H31            9.0756    11.0589    12.2919 H       
  32 H32            7.5472    11.0040    11.3798 H       
  33 H33            9.9573    10.5509    10.8519 H       
  34 H34           10.7795     9.3733    11.9033 H       
  35 H35            6.5297     8.7367    14.4139 H       
  36 H36            5.0000     8.7209    13.5024 H       
  37 H37            7.2088    12.2079    13.5000 H       
  38 H38            7.8488    10.8190    14.4124 H       
  39 H39           10.4071     9.1089     8.8853 H       
  40 H40           11.2292     7.9313     9.9368 H       
  41 H41           12.4349    10.4570    10.3161 H       
  42 H42           17.7237    10.3249     6.0304 H       
  43 H43           16.7891    13.1773     9.9552 H       
  44 H44           19.3287    12.0577     6.7163 H       
  45 H45           18.8571    13.4753     8.6703 H       
  46 H46           12.8211     7.5338     5.0000 H       
  47 H47           14.2963     6.6582     5.4748 H       
  48 H48           12.7710     6.3700     6.3458 H       
@<TRIPOS>BOND
   1    1    2 1
   2    3   13 1
   3    3   14 1
   4    4   17 1
   5    4   20 1
   6    5    9 1
   7    5   10 1
   8    5   11 1
   9    6   15 1
  10    6   16 1
  11    6   41 1
  12    7   16 ar
  13    7   21 ar
  14    8   18 ar
  15    8   21 ar
  16    9   12 1
  17    9   27 1
  18    9   28 1
  19   10   13 1
  20   10   29 1
  21   10   30 1
  22   11   14 1
  23   11   31 1
  24   11   32 1
  25   12   15 1
  26   12   33 1
  27   12   34 1
  28   13   35 1
  29   13   36 1
  30   14   37 1
  31   14   38 1
  32   15   39 1
  33   15   40 1
  34   16   17 ar
  35   17   18 ar
  36   18   19 1
  37   19   20 ar
  38   19   22 ar
  39   20   23 ar
  40   21   26 1
  41   22   24 ar
  42   22   42 1
  43   23   25 ar
  44   23   43 1
  45   24   25 ar
  46   24   44 1
  47   25   45 1
  48   26   46 1
  49   26   47 1
  50   26   48 1

#	End of record

#	Name: 6602783
#	Creating user name:	landrgr1
#	Creation time:	28. 01. 2015 13:52

#	Modifying user name:	landrgr1
#	Modification time:	28. 01. 2015 13:52

#	Program:	corina 3.48 0006  22.01.2010

@<TRIPOS>MOLECULE
6602783
  70   72    0    0    0
SMALL
NO_CHARGES


@<TRIPOS>ATOM
   1 Cl1            0.0000     0.0000     0.0000 Cl      
   2 H2             0.0000     1.3700     0.0000 H       
   3 O3             6.9073     8.7677    10.1448 O.2     
   4 O4            10.0032    15.6644     8.5179 O.3     
   5 O5             9.1320    13.6968     7.9744 O.2     
   6 N6             7.4588    12.9564    15.4144 N.3     
   7 N7             7.6651    10.7594    13.6606 N.3     
   8 N8             8.7703     9.3478     9.0889 N.am    
   9 N9            10.9663    13.6603     9.2252 N.am    
  10 C10            7.0551    11.5901    15.8460 C.3     
  11 C11            5.9914    11.8504    16.9164 C.3     
  12 C12            6.5423    10.8606    14.6131 C.3     
  13 C13            7.6125    13.6865    16.6804 C.3     
  14 C14            6.3844    13.2270    17.5122 C.3     
  15 C15            8.6332    12.8531    14.5595 C.3     
  16 C16            8.2236    12.0670    13.3039 C.3     
  17 C17            7.2712    10.0100    12.4601 C.3     
  18 C18            8.3650    10.1370    11.3979 C.3     
  19 C19            7.9609     9.3681    10.1664 C.2     
  20 C20            9.9203    10.1379     9.1065 C.ar    
  21 C21            8.4220     8.5348     8.0128 C.ar    
  22 C22           11.1302     9.4952     9.0859 C.ar    
  23 C23            9.3013     7.7201     7.3386 C.ar    
  24 C24           11.1869     8.0000     9.0009 C.3     
  25 C25           10.7574     7.4875     7.6574 C.3     
  26 C26            9.8438    11.5216     9.1478 C.ar    
  27 C27            7.0785     8.5867     7.6230 C.ar    
  28 C28           12.3048    10.2313     9.1321 C.ar    
  29 C29            8.8302     6.9937     6.2409 C.ar    
  30 C30           11.0188    12.2624     9.1846 C.ar    
  31 C31           12.2460    11.6109     9.1810 C.ar    
  32 C32            6.6242     7.8522     6.5513 C.ar    
  33 C33            7.5123     7.0563     5.8509 C.ar    
  34 C34           10.0022    14.3183     8.5515 C.2     
  35 C35            8.9344    16.3060     7.7733 C.3     
  36 H36            7.9055    11.0636    16.2793 H       
  37 H37            5.0000    11.8983    16.4658 H       
  38 H38            6.0257    11.0780    17.6847 H       
  39 H39            5.7243    11.4233    14.1632 H       
  40 H40            6.1993     9.8633    14.8887 H       
  41 H41            8.5405    13.4031    17.1770 H       
  42 H42            7.5800    14.7625    16.5097 H       
  43 H43            5.5643    13.9363    17.4009 H       
  44 H44            6.6559    13.1219    18.5626 H       
  45 H45            8.9746    13.8492    14.2776 H       
  46 H46            9.4280    12.3235    15.0848 H       
  47 H47            9.0993    11.9216    12.6713 H       
  48 H48            7.4758    12.6373    12.7528 H       
  49 H49            7.1338     8.9595    12.7164 H       
  50 H50            6.3371    10.4139    12.0699 H       
  51 H51            8.5024    11.1875    11.1416 H       
  52 H52            9.2991     9.7330    11.7882 H       
  53 H53           12.2099     7.6742     9.1894 H       
  54 H54           10.5370     7.5779     9.7675 H       
  55 H55           10.9521     6.4156     7.6221 H       
  56 H56           11.3610     7.9703     6.8888 H       
  57 H57            8.8841    12.0169     9.1510 H       
  58 H58            6.3888     9.2115     8.1710 H       
  59 H59           13.2607     9.7287     9.1301 H       
  60 H60            9.5159     6.3700     5.6867 H       
  61 H61           13.1593    12.1862     9.2164 H       
  62 H62            5.5851     7.8969     6.2604 H       
  63 H63            7.1720     6.4850     5.0000 H       
  64 H64           11.6239    14.1557     9.7382 H       
  65 H65            9.0532    17.3882     7.8267 H       
  66 H66            8.9749    15.9870     6.7318 H       
  67 H67            7.9728    16.0244     8.2024 H       
  68 O68           18.2607    23.3551    23.5688 O.3     
  69 H69           18.2738    22.3882    23.5635 H       
  70 H70           19.1386    23.7604    23.5626 H       
@<TRIPOS>BOND
   1    1    2 1
   2    3   19 2
   3    4   34 1
   4    4   35 1
   5    5   34 2
   6    6   10 1
   7    6   13 1
   8    6   15 1
   9    7   12 1
  10    7   16 1
  11    7   17 1
  12    8   19 am
  13    8   20 1
  14    8   21 1
  15    9   30 1
  16    9   34 am
  17    9   64 1
  18   10   11 1
  19   10   12 1
  20   10   36 1
  21   11   14 1
  22   11   37 1
  23   11   38 1
  24   12   39 1
  25   12   40 1
  26   13   14 1
  27   13   41 1
  28   13   42 1
  29   14   43 1
  30   14   44 1
  31   15   16 1
  32   15   45 1
  33   15   46 1
  34   16   47 1
  35   16   48 1
  36   17   18 1
  37   17   49 1
  38   17   50 1
  39   18   19 1
  40   18   51 1
  41   18   52 1
  42   20   22 ar
  43   20   26 ar
  44   21   23 ar
  45   21   27 ar
  46   22   24 1
  47   22   28 ar
  48   23   25 1
  49   23   29 ar
  50   24   25 1
  51   24   53 1
  52   24   54 1
  53   25   55 1
  54   25   56 1
  55   26   30 ar
  56   26   57 1
  57   27   32 ar
  58   27   58 1
  59   28   31 ar
  60   28   59 1
  61   29   33 ar
  62   29   60 1
  63   30   31 ar
  64   31   61 1
  65   32   33 ar
  66   32   62 1
  67   33   63 1
  68   35   65 1
  69   35   66 1
  70   35   67 1
  71   68   69 1
  72   68   70 1

#	End of record

#	Name: 6602775
#	Creating user name:	landrgr1
#	Creation time:	28. 01. 2015 13:52

#	Modifying user name:	landrgr1
#	Modification time:	28. 01. 2015 13:52

#	Program:	corina 3.48 0006  22.01.2010

@<TRIPOS>MOLECULE
6602775
  52   53    0    0    0
SMALL
NO_CHARGES


@<TRIPOS>ATOM
   1 Cl1            0.0000     0.0000     0.0000 Cl      
   2 H2             0.0000     1.3700     0.0000 H       
   3 O3            10.5450     9.2514    14.0316 O.3     
   4 O4             5.0000     7.7169     9.3227 O.2     
   5 O5             8.2951     7.8094     7.9251 O.3     
   6 O6            11.7336     9.8945    11.6332 O.3     
   7 O7            11.9162     9.6416    16.3867 O.3     
   8 N8             8.2429     8.0534    12.8428 N.3     
   9 N9             6.8456     8.2492    10.4399 N.am    
  10 C10            6.8310     7.6499    12.8029 C.3     
  11 C11            8.9291     7.7168    11.5883 C.3     
  12 C12            6.1103     8.4330    11.7004 C.3     
  13 C13            8.2944     8.5026    10.4360 C.3     
  14 C14            8.9292     7.4546    13.9953 C.3     
  15 C15           10.4118     7.8305    13.9579 C.3     
  16 C16            6.2087     7.8586     9.3182 C.2     
  17 C17            6.9722     7.6041     8.0922 C.2     
  18 C18           11.8089     9.7555    14.0099 C.ar    
  19 C19            6.4687     7.1184     6.9196 C.2     
  20 C20           12.4088    10.0803    12.7991 C.ar    
  21 C21           12.5011     9.9522    15.1989 C.ar    
  22 C22            7.5448     7.0344     6.0224 C.2     
  23 C23            8.6442     7.4670     6.6783 C.2     
  24 C24           13.6968    10.5937    12.7812 C.ar    
  25 C25           13.7888    10.4660    15.1724 C.ar    
  26 C26           14.3840    10.7825    13.9656 C.ar    
  27 C27           12.4120    10.2503    10.4269 C.3     
  28 C28           12.6865     9.8698    17.5685 C.3     
  29 H29            6.7637     6.5822    12.5940 H       
  30 H30            6.3645     7.8629    13.7647 H       
  31 H31            9.9841     7.9783    11.6693 H       
  32 H32            8.8325     6.6481    11.3964 H       
  33 H33            6.0862     9.4916    11.9592 H       
  34 H34            5.0933     8.0570    11.5892 H       
  35 H35            8.7213     8.1727     9.4889 H       
  36 H36            8.4801     9.5679    10.5733 H       
  37 H37            8.4832     7.8269    14.9176 H       
  38 H38            8.8283     6.3700    13.9550 H       
  39 H39           10.8542     7.4719    13.0285 H       
  40 H40           10.9242     7.3732    14.8043 H       
  41 H41            5.4414     6.8507     6.7210 H       
  42 H42            7.5022     6.6889     5.0000 H       
  43 H43            9.6402     7.5271     6.2650 H       
  44 H44           14.1638    10.8460    11.8407 H       
  45 H45           14.3274    10.6192    16.0959 H       
  46 H46           15.3872    11.1822    13.9484 H       
  47 H47           11.7634    10.0528     9.5735 H       
  48 H48           12.6667    11.3098    10.4522 H       
  49 H49           13.3235     9.6596    10.3348 H       
  50 H50           13.5995     9.2758    17.5274 H       
  51 H51           12.9436    10.9269    17.6361 H       
  52 H52           12.1041     9.5808    18.4433 H       
@<TRIPOS>BOND
   1    1    2 1
   2    3   15 1
   3    3   18 1
   4    4   16 2
   5    5   17 1
   6    5   23 1
   7    6   20 1
   8    6   27 1
   9    7   21 1
  10    7   28 1
  11    8   10 1
  12    8   11 1
  13    8   14 1
  14    9   12 1
  15    9   13 1
  16    9   16 am
  17   10   12 1
  18   10   29 1
  19   10   30 1
  20   11   13 1
  21   11   31 1
  22   11   32 1
  23   12   33 1
  24   12   34 1
  25   13   35 1
  26   13   36 1
  27   14   15 1
  28   14   37 1
  29   14   38 1
  30   15   39 1
  31   15   40 1
  32   16   17 1
  33   17   19 2
  34   18   20 ar
  35   18   21 ar
  36   19   22 1
  37   19   41 1
  38   20   24 ar
  39   21   25 ar
  40   22   23 2
  41   22   42 1
  42   23   43 1
  43   24   26 ar
  44   24   44 1
  45   25   26 ar
  46   25   45 1
  47   26   46 1
  48   27   47 1
  49   27   48 1
  50   27   49 1
  51   28   50 1
  52   28   51 1
  53   28   52 1

#	End of record

#	Name: 6602739
#	Creating user name:	landrgr1
#	Creation time:	28. 01. 2015 13:52

#	Modifying user name:	landrgr1
#	Modification time:	28. 01. 2015 13:52

#	Program:	corina 3.48 0006  22.01.2010

@<TRIPOS>MOLECULE
6602739
  41   42    0    0    0
SMALL
NO_CHARGES


@<TRIPOS>ATOM
   1 Cl1            1.9827     3.3981     2.7035 Cl      
   2 S2            -0.0218     1.7577     0.0117 S.3     
   3 O3            -1.0709    -0.8173     0.0079 O.3     
   4 N4            -0.8645    -4.2797    -0.9917 N.3     
   5 N5             0.7074    -2.0024    -0.0154 N.2     
   6 N6             1.0683    -0.7675    -0.0123 N.2     
   7 C7            -1.4105    -3.3414    -0.0020 C.3     
   8 C8            -1.3607    -3.9797     1.3876 C.3     
   9 C9            -2.2769    -5.1756     1.4242 C.ar    
  10 C10           -0.5912    -2.0766    -0.0034 C.2     
  11 C11           -1.7948    -6.4263     1.0861 C.ar    
  12 C12           -3.5980    -5.0229     1.8013 C.ar    
  13 C13           -2.6353    -7.5233     1.1196 C.ar    
  14 C14           -4.4385    -6.1199     1.8349 C.ar    
  15 C15            0.0021    -0.0041     0.0020 C.2     
  16 C16            1.7562     2.0963    -0.0035 C.3     
  17 C17            1.9840     3.5860     0.0024 C.ar    
  18 C18           -3.9577    -7.3697     1.4917 C.ar    
  19 C19            2.1000     4.2636     1.2032 C.ar    
  20 C20            2.0826     4.2747    -1.1916 C.ar    
  21 C21            2.3090     5.6310     1.2078 C.ar    
  22 C22            2.2920     5.6413    -1.1865 C.ar    
  23 C23            2.4019     6.3197     0.0128 C.ar    
  24 H24           -2.4437    -3.1053    -0.2565 H       
  25 H25           -0.3408    -4.2966     1.6055 H       
  26 H26           -1.6824    -3.2526     2.1332 H       
  27 H27            0.0932    -4.5144    -0.7776 H       
  28 H28           -1.4345    -5.1098    -1.0559 H       
  29 H29           -0.7616    -6.5463     0.7954 H       
  30 H30           -3.9735    -4.0466     2.0701 H       
  31 H31           -2.2588    -8.5003     0.8548 H       
  32 H32           -5.4706    -6.0006     2.1299 H       
  33 H33            2.2177     1.6547     0.8798 H       
  34 H34            2.2007     1.6643    -0.9001 H       
  35 H35           -4.6144    -8.2267     1.5175 H       
  36 H36            1.9965     3.7452    -2.1290 H       
  37 H37            2.3993     6.1604     2.1448 H       
  38 H38            2.3698     6.1790    -2.1199 H       
  39 H39            2.5651     7.3873     0.0162 H       
  40 Cl40           7.5651    12.3873     7.7035 Cl      
  41 H41            7.5651    13.7573     7.7035 H       
@<TRIPOS>BOND
   1    1   19 1
   2    2   15 1
   3    2   16 1
   4    3   10 1
   5    3   15 1
   6    4    7 1
   7    4   27 1
   8    4   28 1
   9    5    6 1
  10    5   10 2
  11    6   15 2
  12    7    8 1
  13    7   10 1
  14    7   24 1
  15    8    9 1
  16    8   25 1
  17    8   26 1
  18    9   11 ar
  19    9   12 ar
  20   11   13 ar
  21   11   29 1
  22   12   14 ar
  23   12   30 1
  24   13   18 ar
  25   13   31 1
  26   14   18 ar
  27   14   32 1
  28   16   17 1
  29   16   33 1
  30   16   34 1
  31   17   19 ar
  32   17   20 ar
  33   18   35 1
  34   19   21 ar
  35   20   22 ar
  36   20   36 1
  37   21   23 ar
  38   21   37 1
  39   22   23 ar
  40   22   38 1
  41   23   39 1
  42   40   41 1

#	End of record

#	Name: 6602696
#	Creating user name:	landrgr1
#	Creation time:	28. 01. 2015 13:52

#	Modifying user name:	landrgr1
#	Modification time:	28. 01. 2015 13:52

#	Program:	corina 3.48 0006  22.01.2010

@<TRIPOS>MOLECULE
6602696
  56   58    0    0    0
SMALL
NO_CHARGES


@<TRIPOS>ATOM
   1 Cl1            0.0000     0.0000     0.0000 Cl      
   2 H2             0.0000     1.3700     0.0000 H       
   3 F3             5.3028     9.9896    12.8571 F       
   4 O4            11.0421    12.6181     8.8157 O.2     
   5 N5            11.6259    10.0799     9.1876 N.3     
   6 N6            14.1936     8.9121     9.5728 N.3     
   7 N7             9.0954    12.6737     9.8786 N.am    
   8 N8            16.5208     9.0373     9.7458 N.ar    
   9 N9            15.5625     7.5569     8.2496 N.ar    
  10 C10           11.7722     8.6269     9.3516 C.3     
  11 C11           12.6737    10.7985     9.9262 C.3     
  12 C12           13.1459     8.1936     8.8342 C.3     
  13 C13           14.0473    10.3652     9.4088 C.3     
  14 C14           10.2891    10.5247     9.6037 C.3     
  15 C15           10.1703    12.0137     9.4039 C.2     
  16 C16           15.4531     8.4931     9.1808 C.ar    
  17 C17            8.9337    14.1036     9.6041 C.3     
  18 C18            8.1332    11.9927    10.6343 C.ar    
  19 C19            8.1636    14.2849     8.3214 C.ar    
  20 C20            8.2042    12.0015    12.0210 C.ar    
  21 C21            7.1034    11.3123     9.9982 C.ar    
  22 C22           17.7386     8.6592     9.3943 C.ar    
  23 C23           16.7511     7.1337     7.8526 C.ar    
  24 C24            6.7842    14.3703     8.3497 C.ar    
  25 C25            8.8369    14.3714     7.1173 C.ar    
  26 C26           17.8892     7.6819     8.4231 C.ar    
  27 C27            7.2539    11.3296    12.7645 C.ar    
  28 C28            6.1550    10.6416    10.7454 C.ar    
  29 C29            6.2309    10.6470    12.1280 C.ar    
  30 C30            6.0778    14.5366     7.1731 C.ar    
  31 C31            8.1305    14.5377     5.9407 C.ar    
  32 C32            6.7508    14.6178     5.9684 C.ar    
  33 H33           11.6833     8.3693    10.4070 H       
  34 H34           10.9929     8.1167     8.7855 H       
  35 H35           12.5515    11.8716     9.7790 H       
  36 H36           12.5949    10.5656    10.9881 H       
  37 H37           13.2246     8.4265     7.7723 H       
  38 H38           13.2680     7.1205     8.9815 H       
  39 H39           14.8267    10.8753     9.9750 H       
  40 H40           14.1363    10.6228     8.3535 H       
  41 H41            9.5341    10.0163     9.0042 H       
  42 H42           10.1382    10.2863    10.6566 H       
  43 H43            8.3891    14.5717    10.4241 H       
  44 H44            9.9149    14.5683     9.5075 H       
  45 H45            9.0023    12.5332    12.5178 H       
  46 H46            7.0438    11.3080     8.9198 H       
  47 H47           18.6051     9.1067     9.8583 H       
  48 H48           16.8339     6.3700     7.0935 H       
  49 H49            6.2583    14.3069     9.2909 H       
  50 H50            9.9150    14.3094     7.0957 H       
  51 H51           18.8720     7.3548     8.1172 H       
  52 H52            7.3088    11.3362    13.8431 H       
  53 H53            5.3537    10.1127    10.2510 H       
  54 H54            5.0000    14.6026     7.1951 H       
  55 H55            8.6567    14.6056     5.0000 H       
  56 H56            6.1989    14.7474     5.0492 H       
@<TRIPOS>BOND
   1    1    2 1
   2    3   29 1
   3    4   15 2
   4    5   10 1
   5    5   11 1
   6    5   14 1
   7    6   12 1
   8    6   13 1
   9    6   16 1
  10    7   15 am
  11    7   17 1
  12    7   18 1
  13    8   16 ar
  14    8   22 ar
  15    9   16 ar
  16    9   23 ar
  17   10   12 1
  18   10   33 1
  19   10   34 1
  20   11   13 1
  21   11   35 1
  22   11   36 1
  23   12   37 1
  24   12   38 1
  25   13   39 1
  26   13   40 1
  27   14   15 1
  28   14   41 1
  29   14   42 1
  30   17   19 1
  31   17   43 1
  32   17   44 1
  33   18   20 ar
  34   18   21 ar
  35   19   24 ar
  36   19   25 ar
  37   20   27 ar
  38   20   45 1
  39   21   28 ar
  40   21   46 1
  41   22   26 ar
  42   22   47 1
  43   23   26 ar
  44   23   48 1
  45   24   30 ar
  46   24   49 1
  47   25   31 ar
  48   25   50 1
  49   26   51 1
  50   27   29 ar
  51   27   52 1
  52   28   29 ar
  53   28   53 1
  54   30   32 ar
  55   30   54 1
  56   31   32 ar
  57   31   55 1
  58   32   56 1

#	End of record

#	Name: 6602611
#	Creating user name:	landrgr1
#	Creation time:	28. 01. 2015 13:52

#	Modifying user name:	landrgr1
#	Modification time:	28. 01. 2015 13:52

#	Program:	corina 3.48 0006  22.01.2010

@<TRIPOS>MOLECULE
6602611
  58   60    0    0    0
SMALL
NO_CHARGES


@<TRIPOS>ATOM
   1 Cl1            0.0000     0.0000     0.0000 Cl      
   2 H2             0.0000     1.3700     0.0000 H       
   3 S3             7.0652    13.4432     9.2929 S.3     
   4 F4             6.9996     7.0727    11.1615 F       
   5 F5             8.3948     6.9368     9.3576 F       
   6 F6             6.1307     6.8818     9.0573 F       
   7 O7            17.4897     9.2660     5.9660 O.3     
   8 N8            13.4021     8.7511     9.4432 N.3     
   9 N9            15.7191     8.1193     7.9141 N.3     
  10 N10            9.5260    11.7200     9.7799 N.pl3   
  11 C11           14.6317     8.2877    10.1011 C.3     
  12 C12           13.7137     9.4915     8.2126 C.3     
  13 C13           15.4075     7.3789     9.1447 C.3     
  14 C14           14.4895     8.5827     7.2562 C.3     
  15 C15           12.5912     9.5666    10.3571 C.3     
  16 C16           11.4568    10.2328     9.5760 C.3     
  17 C17           16.5300     7.3039     7.0002 C.3     
  18 C18           10.6122    11.0821    10.5279 C.3     
  19 C19           16.7546     8.0708     5.6955 C.3     
  20 C20            8.3200    11.0313     9.6722 C.ar    
  21 C21            9.7694    12.9743     9.2252 C.ar    
  22 C22            7.1148    11.6906     9.4517 C.ar    
  23 C23            8.7389    13.8686     8.9508 C.ar    
  24 C24            8.3277     9.6451     9.7897 C.ar    
  25 C25           11.0812    13.3371     8.9393 C.ar    
  26 C26            7.1496     8.9298     9.6909 C.ar    
  27 C27            5.9351    10.9646     9.3536 C.ar    
  28 C28            9.0266    15.1104     8.4010 C.ar    
  29 C29            5.9537     9.5875     9.4732 C.ar    
  30 C30           11.3595    14.5748     8.3907 C.ar    
  31 C31           10.3348    15.4618     8.1222 C.ar    
  32 C32            7.1690     7.4284     9.8191 C.3     
  33 H33           15.2480     9.1467    10.3667 H       
  34 H34           14.3744     7.7317    11.0027 H       
  35 H35           12.7870     9.8132     7.7372 H       
  36 H36           14.3195    10.3642     8.4567 H       
  37 H37           14.8018     6.5063     8.9006 H       
  38 H38           16.3342     7.0573     9.6201 H       
  39 H39           14.7468     9.1387     6.3546 H       
  40 H40           13.8733     7.7238     6.9906 H       
  41 H41           12.1711     8.9303    11.1361 H       
  42 H42           13.2177    10.3333    10.8129 H       
  43 H43           11.8769    10.8691     8.7970 H       
  44 H44           10.8303     9.4661     9.1202 H       
  45 H45           17.4922     7.0863     7.4639 H       
  46 H46           16.0097     6.3700     6.7877 H       
  47 H47           11.2387    11.8489    10.9837 H       
  48 H48           10.1921    10.4458    11.3069 H       
  49 H49           15.7914     8.3285     5.2551 H       
  50 H50           17.3171     7.4479     5.0000 H       
  51 H51            9.2592     9.1255     9.9591 H       
  52 H52           11.8864    12.6478     9.1464 H       
  53 H53            5.0000    11.4775     9.1836 H       
  54 H54            8.2263    15.8042     8.1900 H       
  55 H55            5.0344     9.0259     9.3961 H       
  56 H56           17.6689     9.8035     5.1823 H       
  57 H57           12.3808    14.8497     8.1720 H       
  58 H58           10.5552    16.4287     7.6946 H       
@<TRIPOS>BOND
   1    1    2 1
   2    3   22 1
   3    3   23 1
   4    4   32 1
   5    5   32 1
   6    6   32 1
   7    7   19 1
   8    7   56 1
   9    8   11 1
  10    8   12 1
  11    8   15 1
  12    9   13 1
  13    9   14 1
  14    9   17 1
  15   10   18 1
  16   10   20 1
  17   10   21 1
  18   11   13 1
  19   11   33 1
  20   11   34 1
  21   12   14 1
  22   12   35 1
  23   12   36 1
  24   13   37 1
  25   13   38 1
  26   14   39 1
  27   14   40 1
  28   15   16 1
  29   15   41 1
  30   15   42 1
  31   16   18 1
  32   16   43 1
  33   16   44 1
  34   17   19 1
  35   17   45 1
  36   17   46 1
  37   18   47 1
  38   18   48 1
  39   19   49 1
  40   19   50 1
  41   20   22 ar
  42   20   24 ar
  43   21   23 ar
  44   21   25 ar
  45   22   27 ar
  46   23   28 ar
  47   24   26 ar
  48   24   51 1
  49   25   30 ar
  50   25   52 1
  51   26   29 ar
  52   26   32 1
  53   27   29 ar
  54   27   53 1
  55   28   31 ar
  56   28   54 1
  57   29   55 1
  58   30   31 ar
  59   30   57 1
  60   31   58 1

#	End of record

#	Name: 6602603
#	Creating user name:	landrgr1
#	Creation time:	28. 01. 2015 13:52

#	Modifying user name:	landrgr1
#	Modification time:	28. 01. 2015 13:52

#	Program:	corina 3.48 0006  22.01.2010

@<TRIPOS>MOLECULE
6602603
  62   64    0    0    0
SMALL
NO_CHARGES


@<TRIPOS>ATOM
   1 Cl1            0.0000     0.0000     0.0000 Cl      
   2 H2             0.0000     1.3700     0.0000 H       
   3 O3            10.6954    12.1240    10.8740 O.3     
   4 O4            12.5753    10.0656    11.9655 O.2     
   5 O5            12.7777    10.2316     9.4991 O.2     
   6 O6            12.5459     9.0135    14.0753 O.3     
   7 O7             9.0846    10.8730     6.9144 O.2     
   8 O8            12.2687     7.2390    15.9398 O.3     
   9 O9            11.1915    10.5443     5.7679 O.3     
  10 N10            8.6500    12.3963     9.5925 N.3     
  11 N11            6.8771     8.4929    16.1928 N.3     
  12 N12           13.0279     9.9549     7.0833 N.pl3   
  13 C13            9.3479    10.1917    10.3986 C.3     
  14 C14           10.7644    10.7163    10.6382 C.3     
  15 C15            8.5408    10.3633    11.6849 C.3     
  16 C16            9.0787     9.3787    12.7235 C.3     
  17 C17            8.7233    10.9714     9.2429 C.3     
  18 C18           10.5730     9.4769    12.8374 C.2     
  19 C19           11.3660    10.0599    11.8384 C.2     
  20 C20            8.4140     9.6239    14.0750 C.3     
  21 C21           11.5917    10.4758     9.4065 C.2     
  22 C22            9.5864    10.7945     8.0175 C.2     
  23 C23            9.0178     8.7112    15.1098 C.ar    
  24 C24           11.2000     8.9751    13.9658 C.2     
  25 C25           10.9687    10.5386     8.1372 C.2     
  26 C26           10.3802     8.3991    15.0437 C.ar    
  27 C27            8.2398     8.1817    16.1221 C.ar    
  28 C28            8.7129    13.2374     8.3898 C.3     
  29 C29            7.4401    12.6850    10.3741 C.3     
  30 C30           10.9484     7.5491    16.0004 C.ar    
  31 C31           11.7379    10.3439     6.9797 C.2     
  32 C32            8.8113     7.3392    17.0717 C.ar    
  33 C33           10.1545     7.0252    17.0104 C.ar    
  34 C34            6.0543     7.2798    16.0960 C.3     
  35 C35            6.5708     9.2403    17.4198 C.3     
  36 H36            9.3923     9.1345    10.1369 H       
  37 H37            8.6502    11.3831    12.0541 H       
  38 H38            7.4891    10.1535    11.4897 H       
  39 H39            8.8240     8.3684    12.4032 H       
  40 H40            7.7210    10.5915     9.0450 H       
  41 H41            8.5680    10.6612    14.3721 H       
  42 H42            7.3453     9.4249    13.9951 H       
  43 H43           11.5541    12.5382    11.0359 H       
  44 H44            7.8774    12.9952     7.7330 H       
  45 H45            8.6567    14.2873     8.6773 H       
  46 H46            9.6514    13.0537     7.8667 H       
  47 H47            7.4993    12.1766    11.3364 H       
  48 H48            7.3598    13.7600    10.5356 H       
  49 H49            6.5636    12.3328     9.8303 H       
  50 H50           12.8887     9.8490    14.4209 H       
  51 H51            8.1998     6.9281    17.8613 H       
  52 H52           10.5885     6.3700    17.7512 H       
  53 H53           13.6564    10.1658     6.3752 H       
  54 H54           13.3254     9.4647     7.8657 H       
  55 H55           12.8384     7.8467    16.4308 H       
  56 H56            6.3020     6.6064    16.9166 H       
  57 H57            5.0000     7.5504    16.1537 H       
  58 H58            6.2504     6.7826    15.1461 H       
  59 H59            7.1424    10.1684    17.4322 H       
  60 H60            5.5055     9.4693    17.4494 H       
  61 H61            6.8372     8.6379    18.2883 H       
  62 H62           11.7606    10.3975     5.0000 H       
@<TRIPOS>BOND
   1    1    2 1
   2    3   14 1
   3    3   43 1
   4    4   19 2
   5    5   21 2
   6    6   24 1
   7    6   50 1
   8    7   22 2
   9    8   30 1
  10    8   55 1
  11    9   31 1
  12    9   62 1
  13   10   17 1
  14   10   28 1
  15   10   29 1
  16   11   27 1
  17   11   34 1
  18   11   35 1
  19   12   31 1
  20   12   53 1
  21   12   54 1
  22   13   14 1
  23   13   15 1
  24   13   17 1
  25   13   36 1
  26   14   19 1
  27   14   21 1
  28   15   16 1
  29   15   37 1
  30   15   38 1
  31   16   18 1
  32   16   20 1
  33   16   39 1
  34   17   22 1
  35   17   40 1
  36   18   19 1
  37   18   24 2
  38   20   23 1
  39   20   41 1
  40   20   42 1
  41   21   25 1
  42   22   25 1
  43   23   26 ar
  44   23   27 ar
  45   24   26 1
  46   25   31 2
  47   26   30 ar
  48   27   32 ar
  49   28   44 1
  50   28   45 1
  51   28   46 1
  52   29   47 1
  53   29   48 1
  54   29   49 1
  55   30   33 ar
  56   32   33 ar
  57   32   51 1
  58   33   52 1
  59   34   56 1
  60   34   57 1
  61   34   58 1
  62   35   59 1
  63   35   60 1
  64   35   61 1

#	End of record

#	Name: 6602566
#	Creating user name:	landrgr1
#	Creation time:	28. 01. 2015 13:52

#	Modifying user name:	landrgr1
#	Modification time:	28. 01. 2015 13:52

#	Program:	corina 3.48 0006  22.01.2010

@<TRIPOS>MOLECULE
6602566
  56   58    0    0    0
SMALL
NO_CHARGES


@<TRIPOS>ATOM
   1 Cl1            0.0000     0.0000     0.0000 Cl      
   2 H2             0.0000     1.3700     0.0000 H       
   3 O3            14.1168    10.4862    17.0855 O.3     
   4 N4            10.4699     8.6217    13.5930 N.3     
   5 N5            11.9304     8.9775    16.0108 N.3     
   6 N6            10.1069     8.9239     8.9341 N.3     
   7 N7            12.1823     8.3937     7.0588 N.3     
   8 N8            10.2353     8.8013    11.2783 N.ar    
   9 N9             8.5998     9.6640    12.6891 N.ar    
  10 C10            9.7793     8.9718    14.8420 C.3     
  11 C11           11.8300     9.1780    13.5729 C.3     
  12 C12           10.5704     8.4212    16.0309 C.3     
  13 C13           12.6211     8.6274    14.7618 C.3     
  14 C14           10.7641     7.6101     8.8940 C.3     
  15 C15           11.0345     9.9864     8.5215 C.3     
  16 C16           11.2547     7.3312     7.4713 C.3     
  17 C17           11.5251     9.7075     7.0988 C.3     
  18 C18            9.5887     9.1790    10.1856 C.ar    
  19 C19            9.7462     9.0419    12.4919 C.ar    
  20 C20           12.6991     8.5312    17.1804 C.3     
  21 C21            8.3505     9.8528    10.3361 C.ar    
  22 C22           12.7346     8.1217     5.7250 C.3     
  23 C23            7.8686    10.0869    11.6470 C.ar    
  24 C24           14.1323     9.0573    17.0797 C.3     
  25 C25            7.6032    10.2854     9.2360 C.ar    
  26 C26            6.6467    10.7503    11.8202 C.ar    
  27 C27            6.4173    10.9289     9.4398 C.ar    
  28 C28            5.9417    11.1595    10.7268 C.ar    
  29 H29            9.7054    10.0561    14.9252 H       
  30 H30            8.7793     8.5381    14.8385 H       
  31 H31           12.3251     8.8946    12.6441 H       
  32 H32           11.7794    10.2647    13.6416 H       
  33 H33           10.6209     7.3346    15.9622 H       
  34 H34           10.0753     8.7046    16.9597 H       
  35 H35           13.6211     9.0612    14.7653 H       
  36 H36           12.6950     7.5431    14.6787 H       
  37 H37           11.6124     7.6068     9.5784 H       
  38 H38           10.0536     6.8388     9.1914 H       
  39 H39           10.5212    10.9476     8.5473 H       
  40 H40           11.8860    10.0101     9.2017 H       
  41 H41           10.4033     7.3075     6.7912 H       
  42 H42           11.7680     6.3700     7.4456 H       
  43 H43           12.2357    10.4787     6.8015 H       
  44 H44           10.6768     9.7108     6.4144 H       
  45 H45           12.2343     8.9148    18.0886 H       
  46 H46           12.7133     7.4418    17.2117 H       
  47 H47           11.9225     8.0658     5.0000 H       
  48 H48           13.4177     8.9234     5.4442 H       
  49 H49           13.2732     7.1743     5.7410 H       
  50 H50           14.5854     8.7026    16.1539 H       
  51 H51           14.7122     8.6968    17.9294 H       
  52 H52            7.9622    10.1116     8.2324 H       
  53 H53            6.2653    10.9362    12.8133 H       
  54 H54            5.8398    11.2631     8.5906 H       
  55 H55            5.0000    11.6708    10.8621 H       
  56 H56           14.9936    10.8893    17.0241 H       
@<TRIPOS>BOND
   1    1    2 1
   2    3   24 1
   3    3   56 1
   4    4   10 1
   5    4   11 1
   6    4   19 1
   7    5   12 1
   8    5   13 1
   9    5   20 1
  10    6   14 1
  11    6   15 1
  12    6   18 1
  13    7   16 1
  14    7   17 1
  15    7   22 1
  16    8   18 ar
  17    8   19 ar
  18    9   19 ar
  19    9   23 ar
  20   10   12 1
  21   10   29 1
  22   10   30 1
  23   11   13 1
  24   11   31 1
  25   11   32 1
  26   12   33 1
  27   12   34 1
  28   13   35 1
  29   13   36 1
  30   14   16 1
  31   14   37 1
  32   14   38 1
  33   15   17 1
  34   15   39 1
  35   15   40 1
  36   16   41 1
  37   16   42 1
  38   17   43 1
  39   17   44 1
  40   18   21 ar
  41   20   24 1
  42   20   45 1
  43   20   46 1
  44   21   23 ar
  45   21   25 ar
  46   22   47 1
  47   22   48 1
  48   22   49 1
  49   23   26 ar
  50   24   50 1
  51   24   51 1
  52   25   27 ar
  53   25   52 1
  54   26   28 ar
  55   26   53 1
  56   27   28 ar
  57   27   54 1
  58   28   55 1

#	End of record

#	Name: 6538442
#	Creating user name:	landrgr1
#	Creation time:	28. 01. 2015 13:52

#	Modifying user name:	landrgr1
#	Modification time:	28. 01. 2015 13:52

#	Program:	corina 3.48 0006  22.01.2010

@<TRIPOS>MOLECULE
6538442
  33   34    0    0    0
SMALL
NO_CHARGES


@<TRIPOS>ATOM
   1 O1            -0.0164     1.3562     0.0095 O.3     
   2 O2            -2.2792    -0.1285     0.0240 O.2     
   3 O3             2.6268    -6.7638    -0.0642 O.2     
   4 O4             8.4481    -8.6476    -0.1586 O.2     
   5 N5             2.4379    -4.1097    -0.0482 N.pl3   
   6 N6             3.6585    -4.7971    -0.0694 N.am    
   7 N7             6.0908    -6.1991    -0.1118 N.2     
   8 N8             7.2345    -6.7822    -0.1309 N.am    
   9 C9             1.2048    -2.0816    -0.0202 C.2     
  10 C10            1.1886    -0.6681    -0.0129 C.2     
  11 C11            0.0021    -0.0041     0.0020 C.2     
  12 C12           -0.0107    -2.7996    -0.0115 C.2     
  13 C13            2.4236    -2.7681    -0.0413 C.2     
  14 C14           -1.2109    -0.7269     0.0102 C.2     
  15 C15           -1.1937    -2.1329     0.0029 C.2     
  16 C16            4.9612    -6.8704    -0.0987 C.2     
  17 C17            3.6728    -6.1448    -0.0763 C.2     
  18 C18            4.9737    -8.2861    -0.1064 C.2     
  19 C19            6.1803    -8.9204    -0.1271 C.2     
  20 C20            7.3467    -8.1236    -0.1396 C.2     
  21 C21            1.2479     2.0223     0.0010 C.3     
  22 H22            2.1171    -0.1165    -0.0191 H       
  23 H23            0.0002    -3.8796    -0.0174 H       
  24 H24            3.3530    -2.2180    -0.0521 H       
  25 H25           -2.1228    -2.6834     0.0092 H       
  26 H26            1.6032    -4.6037    -0.0385 H       
  27 H27            4.4932    -4.3032    -0.0791 H       
  28 H28            4.0518    -8.8487    -0.0958 H       
  29 H29            6.2424    -9.9986    -0.1334 H       
  30 H30            8.0397    -6.2414    -0.1399 H       
  31 H31            1.8003     1.7418    -0.8958 H       
  32 H32            1.0905     3.1008     0.0083 H       
  33 H33            1.8173     1.7322     0.8840 H       
@<TRIPOS>BOND
   1    1   11 1
   2    1   21 1
   3    2   14 2
   4    3   17 2
   5    4   20 2
   6    5    6 1
   7    5   13 1
   8    5   26 1
   9    6   17 am
  10    6   27 1
  11    7    8 1
  12    7   16 2
  13    8   20 am
  14    8   30 1
  15    9   10 1
  16    9   12 1
  17    9   13 2
  18   10   11 2
  19   10   22 1
  20   11   14 1
  21   12   15 2
  22   12   23 1
  23   13   24 1
  24   14   15 1
  25   15   25 1
  26   16   17 1
  27   16   18 1
  28   18   19 2
  29   18   28 1
  30   19   20 1
  31   19   29 1
  32   21   31 1
  33   21   32 1
  34   21   33 1

#	End of record

#	Name: 6535954
#	Creating user name:	landrgr1
#	Creation time:	28. 01. 2015 13:52

#	Modifying user name:	landrgr1
#	Modification time:	28. 01. 2015 13:52

#	Program:	corina 3.48 0006  22.01.2010

@<TRIPOS>MOLECULE
6535954
  55   58    0    0    0
SMALL
NO_CHARGES


@<TRIPOS>ATOM
   1 S1             0.8423     0.3939    -0.6595 S.3     
   2 O2            -4.7178    -4.2229    -2.4433 O.2     
   3 O3            -3.8498    -1.9239    -1.0494 O.2     
   4 O4            -2.3222    -0.7959    -2.9902 O.2     
   5 N5            -5.5606    -5.7712     0.4750 N.pl3   
   6 N6            -5.8126    -5.4840    -0.8714 N.am    
   7 N7            -2.7506    -3.6643    -0.2103 N.am    
   8 N8            -1.6753    -0.1979    -0.9512 N.am    
   9 C9            -4.4108    -5.1351     0.8626 C.2     
  10 C10           -3.9193    -4.4499    -0.1943 C.2     
  11 C11           -4.8286    -4.6764    -1.3185 C.2     
  12 C12           -6.8950    -5.9527    -1.6224 C.ar    
  13 C13           -6.3967    -6.6128     1.3346 C.3     
  14 C14           -3.7963    -5.1901     2.2376 C.3     
  15 C15           -7.6418    -5.0705    -2.3926 C.ar    
  16 C16           -7.2223    -7.3025    -1.6043 C.ar    
  17 C17           -2.8075    -2.3799    -0.6146 C.2     
  18 C18           -8.7103    -5.5367    -3.1332 C.ar    
  19 C19           -8.2920    -7.7621    -2.3471 C.ar    
  20 C20           -1.6162    -1.5325    -0.5311 C.2     
  21 C21           -9.0369    -6.8802    -3.1084 C.ar    
  22 C22           -0.4526    -2.0415    -0.0457 C.2     
  23 C23            0.7327    -1.2670    -0.0909 C.2     
  24 C24           -1.9983     0.0933    -2.2269 C.2     
  25 C25           -1.9588     1.4938    -2.6980 C.ar    
  26 C26            1.9724    -1.6933     0.3002 C.2     
  27 C27           -2.3317     1.8039    -4.0070 C.ar    
  28 C28           -1.5541     2.5128    -1.8341 C.ar    
  29 C29            2.9659    -0.7543     0.1588 C.2     
  30 C30            2.5704     0.4256    -0.3367 C.2     
  31 C31           -2.2930     3.1131    -4.4401 C.ar    
  32 C32           -1.5199     3.8179    -2.2800 C.ar    
  33 C33           -1.8858     4.1177    -3.5803 C.ar    
  34 H34           -6.1067    -7.6565     1.2140 H       
  35 H35           -6.2624    -6.3162     2.3748 H       
  36 H36           -7.4431    -6.4917     1.0545 H       
  37 H37           -3.0991    -6.0263     2.2908 H       
  38 H38           -3.2636    -4.2598     2.4349 H       
  39 H39           -4.5816    -5.3239     2.9815 H       
  40 H40           -1.9047    -4.0476     0.0697 H       
  41 H41           -7.3874    -4.0211    -2.4122 H       
  42 H42           -6.6406    -7.9918    -1.0102 H       
  43 H43           -9.2915    -4.8512    -3.7320 H       
  44 H44           -8.5467    -8.8116    -2.3337 H       
  45 H45           -9.8730    -7.2422    -3.6884 H       
  46 H46           -0.4320    -3.0363     0.3743 H       
  47 H47           -1.4838     0.5169    -0.3241 H       
  48 H48            2.1550    -2.6846     0.6879 H       
  49 H49           -2.6494     1.0206    -4.6792 H       
  50 H50           -1.2686     2.2802    -0.8188 H       
  51 H51            3.9925    -0.9535     0.4283 H       
  52 H52            3.2178     1.2720    -0.5121 H       
  53 H53           -2.5808     3.3543    -5.4527 H       
  54 H54           -1.2073     4.6073    -1.6126 H       
  55 H55           -1.8569     5.1410    -3.9245 H       
@<TRIPOS>BOND
   1    1   23 1
   2    1   30 1
   3    2   11 2
   4    3   17 2
   5    4   24 2
   6    5    6 1
   7    5    9 1
   8    5   13 1
   9    6   11 am
  10    6   12 1
  11    7   10 1
  12    7   17 am
  13    7   40 1
  14    8   20 1
  15    8   24 am
  16    8   47 1
  17    9   10 2
  18    9   14 1
  19   10   11 1
  20   12   15 ar
  21   12   16 ar
  22   13   34 1
  23   13   35 1
  24   13   36 1
  25   14   37 1
  26   14   38 1
  27   14   39 1
  28   15   18 ar
  29   15   41 1
  30   16   19 ar
  31   16   42 1
  32   17   20 1
  33   18   21 ar
  34   18   43 1
  35   19   21 ar
  36   19   44 1
  37   20   22 2
  38   21   45 1
  39   22   23 1
  40   22   46 1
  41   23   26 2
  42   24   25 1
  43   25   27 ar
  44   25   28 ar
  45   26   29 1
  46   26   48 1
  47   27   31 ar
  48   27   49 1
  49   28   32 ar
  50   28   50 1
  51   29   30 2
  52   29   51 1
  53   30   52 1
  54   31   33 ar
  55   31   53 1
  56   32   33 ar
  57   32   54 1
  58   33   55 1

#	End of record

#	Name: 6529476
#	Creating user name:	landrgr1
#	Creation time:	28. 01. 2015 13:52

#	Modifying user name:	landrgr1
#	Modification time:	28. 01. 2015 13:52

#	Program:	corina 3.48 0006  22.01.2010

@<TRIPOS>MOLECULE
6529476
  31   32    0    0    0
SMALL
NO_CHARGES


@<TRIPOS>ATOM
   1 O1             4.1811     2.8893     1.0240 O.2     
   2 O2            -0.3845     3.3038     0.4880 O.2     
   3 O3             0.8268     5.0309     0.5140 O.2     
   4 N4             0.5938     0.9727     1.0106 N.pl3   
   5 N5             0.7150     3.8198     0.5800 N.pl3   
   6 N6             3.3464     4.8597     0.4223 N.am    
   7 C7             2.2522    -0.6953     1.4052 C.3     
   8 C8             2.9226     0.6764     1.1773 C.3     
   9 C9             0.7873    -0.3089     1.7078 C.3     
  10 C10            1.7812     1.6472     0.9690 C.2     
  11 C11            1.9153     2.9751     0.7720 C.2     
  12 C12            3.2025     3.5600     0.7489 C.2     
  13 C13            4.6246     5.3994     0.2475 C.ar    
  14 C14            4.8684     6.7288     0.5670 C.ar    
  15 C15            5.6545     4.6055    -0.2406 C.ar    
  16 C16            6.1320     7.2586     0.3936 C.ar    
  17 C17            6.9158     5.1414    -0.4117 C.ar    
  18 C18            7.1539     6.4669    -0.0975 C.ar    
  19 H19            2.3125    -1.3093     0.5066 H       
  20 H20            2.7005    -1.2082     2.2561 H       
  21 H21            3.5066     0.9618     2.0523 H       
  22 H22            3.5578     0.6443     0.2921 H       
  23 H23            0.6403    -0.1845     2.7807 H       
  24 H24            0.1057    -1.0630     1.3143 H       
  25 H25           -0.2439     1.2872     0.6359 H       
  26 H26            2.5633     5.4207     0.3086 H       
  27 H27            4.0707     7.3478     0.9503 H       
  28 H28            5.4692     3.5701    -0.4859 H       
  29 H29            6.3222     8.2924     0.6416 H       
  30 H30            7.7171     4.5246    -0.7909 H       
  31 H31            8.1411     6.8837    -0.2325 H       
@<TRIPOS>BOND
   1    1   12 2
   2    2    5 2
   3    3    5 2
   4    4    9 1
   5    4   10 1
   6    4   25 1
   7    5   11 1
   8    6   12 am
   9    6   13 1
  10    6   26 1
  11    7    8 1
  12    7    9 1
  13    7   19 1
  14    7   20 1
  15    8   10 1
  16    8   21 1
  17    8   22 1
  18    9   23 1
  19    9   24 1
  20   10   11 2
  21   11   12 1
  22   13   14 ar
  23   13   15 ar
  24   14   16 ar
  25   14   27 1
  26   15   17 ar
  27   15   28 1
  28   16   18 ar
  29   16   29 1
  30   17   18 ar
  31   17   30 1
  32   18   31 1

#	End of record

#	Name: 6525083
#	Creating user name:	landrgr1
#	Creation time:	28. 01. 2015 13:52

#	Modifying user name:	landrgr1
#	Modification time:	28. 01. 2015 13:52

#	Program:	corina 3.48 0006  22.01.2010

@<TRIPOS>MOLECULE
6525083
  48   51    0    0    0
SMALL
NO_CHARGES


@<TRIPOS>ATOM
   1 O1            -2.2539     1.5287     0.0512 O.2     
   2 O2             8.0879     0.1312     2.6291 O.2     
   3 N3            -0.0178     1.4608     0.0101 N.am    
   4 N4             1.1695     3.4291    -0.5347 N.pl3   
   5 C5             0.0021    -0.0041     0.0020 C.3     
   6 C6             0.0228    -0.5218     1.4416 C.3     
   7 C7             1.1560     2.1684     0.0027 C.2     
   8 C8            -1.1622     3.6020    -0.0110 C.ar    
   9 C9            -1.1966     2.1284     0.0193 C.2     
  10 C10            0.0613     4.2349    -0.2960 C.ar    
  11 C11            0.0432    -2.0286     1.4333 C.ar    
  12 C12            2.3232     1.6121     0.5362 C.2     
  13 C13           -2.2978     4.3697     0.2321 C.ar    
  14 C14            0.1326     5.6162    -0.3360 C.ar    
  15 C15            1.2496    -2.7034     1.4182 C.ar    
  16 C16           -1.1443    -2.7360     1.4466 C.ar    
  17 C17           -2.2086     5.7460     0.1899 C.ar    
  18 C18           -1.0018     6.3656    -0.0883 C.ar    
  19 C19            3.4853     2.3246     0.5237 C.2     
  20 C20            1.2683    -4.0856     1.4105 C.ar    
  21 C21           -1.1256    -4.1182     1.4390 C.ar    
  22 C22            4.6682     1.7608     1.0644 C.2     
  23 C23            0.0807    -4.7930     1.4185 C.ar    
  24 C24            5.8668     2.4952     1.0518 C.2     
  25 C25            4.6419     0.4692     1.6188 C.2     
  26 C26            7.0018     1.9535     1.5714 C.2     
  27 C27            5.7776    -0.0712     2.1381 C.2     
  28 C28            6.9759     0.6611     2.1203 C.2     
  29 H29           -0.8878    -0.3767    -0.5053 H       
  30 H30            0.8920    -0.3525    -0.5222 H       
  31 H31            0.9126    -0.1491     1.9490 H       
  32 H32           -0.8671    -0.1733     1.9659 H       
  33 H33            1.9210     3.7464    -1.0595 H       
  34 H34            2.3037     0.6181     0.9580 H       
  35 H35           -3.2411     3.8919     0.4518 H       
  36 H36            1.0690     6.1057    -0.5592 H       
  37 H37            2.1774    -2.1507     1.4120 H       
  38 H38           -2.0868    -2.2088     1.4632 H       
  39 H39           -3.0870     6.3455     0.3780 H       
  40 H40           -0.9481     7.4439    -0.1191 H       
  41 H41            3.5048     3.3186     0.1019 H       
  42 H42            2.2108    -4.6128     1.3980 H       
  43 H43           -2.0534    -4.6709     1.4497 H       
  44 H44            0.0953    -5.8729     1.4122 H       
  45 H45            5.8869     3.4890     0.6294 H       
  46 H46            3.7204    -0.0939     1.6329 H       
  47 H47            7.9228     2.5175     1.5614 H       
  48 H48            5.7575    -1.0633     2.5644 H       
@<TRIPOS>BOND
   1    1    9 2
   2    2   28 2
   3    3    5 1
   4    3    7 1
   5    3    9 am
   6    4    7 1
   7    4   10 1
   8    4   33 1
   9    5    6 1
  10    5   29 1
  11    5   30 1
  12    6   11 1
  13    6   31 1
  14    6   32 1
  15    7   12 2
  16    8    9 1
  17    8   10 ar
  18    8   13 ar
  19   10   14 ar
  20   11   15 ar
  21   11   16 ar
  22   12   19 1
  23   12   34 1
  24   13   17 ar
  25   13   35 1
  26   14   18 ar
  27   14   36 1
  28   15   20 ar
  29   15   37 1
  30   16   21 ar
  31   16   38 1
  32   17   18 ar
  33   17   39 1
  34   18   40 1
  35   19   22 2
  36   19   41 1
  37   20   23 ar
  38   20   42 1
  39   21   23 ar
  40   21   43 1
  41   22   24 1
  42   22   25 1
  43   23   44 1
  44   24   26 2
  45   24   45 1
  46   25   27 2
  47   25   46 1
  48   26   28 1
  49   26   47 1
  50   27   28 1
  51   27   48 1

#	End of record

#	Name: 6524899
#	Creating user name:	landrgr1
#	Creation time:	28. 01. 2015 13:52

#	Modifying user name:	landrgr1
#	Modification time:	28. 01. 2015 13:52

#	Program:	corina 3.48 0006  22.01.2010

@<TRIPOS>MOLECULE
6524899
  51   52    0    0    0
SMALL
NO_CHARGES


@<TRIPOS>ATOM
   1 S1            -0.0172     1.4168     0.0098 S.o2    
   2 O2             0.0021    -0.0041     0.0020 O.2     
   3 O3             1.1617     2.2101     0.0028 O.2     
   4 O4            -4.2724     8.3209     9.6938 O.3     
   5 O5            -4.7255     5.8480     8.6558 O.2     
   6 N6            -0.9002     1.8797    -1.3124 N.am    
   7 N7            -1.4151     3.5061     3.0770 N.ar    
   8 N8            -2.9918     3.1325     4.7751 N.pl3   
   9 N9            -2.7512     4.4084     5.3015 N.pl3   
  10 C10           -0.7022     3.2084    -1.8968 C.3     
  11 C11           -1.8794     0.9606    -1.8977 C.3     
  12 C12           -0.9297     1.8941     1.4396 C.ar    
  13 C13            0.2961     3.1137    -3.0524 C.3     
  14 C14           -3.2658     1.2589    -1.3231 C.3     
  15 C15           -1.8490     1.0223     2.0084 C.ar    
  16 C16           -0.7376     3.1381     2.0059 C.ar    
  17 C17           -2.5440     1.4357     3.1303 C.ar    
  18 C18           -2.3000     2.7039     3.6482 C.ar    
  19 C19           -3.1792     6.0939     6.9141 C.2     
  20 C20           -3.4190     4.8221     6.3893 C.2     
  21 C21           -3.9003     6.5625     8.1029 C.2     
  22 C22           -3.6215     7.8550     8.5938 C.2     
  23 C23           -2.2320     6.9558     6.3148 C.2     
  24 C24           -2.6989     8.6371     7.9639 C.2     
  25 C25           -2.0111     8.1892     6.8386 C.2     
  26 C26           -3.9397     9.6388    10.1348 C.3     
  27 C27           -4.7667     9.9858    11.3744 C.3     
  28 H28           -1.6540     3.5872    -2.2691 H       
  29 H29           -0.3141     3.8858    -1.1361 H       
  30 H30           -1.8988     1.0911    -2.9797 H       
  31 H31           -1.6010    -0.0662    -1.6604 H       
  32 H32            0.4434     4.1022    -3.4873 H       
  33 H33            1.2480     2.7349    -2.6801 H       
  34 H34           -0.0920     2.4363    -3.8131 H       
  35 H35           -3.2464     1.1284    -0.2412 H       
  36 H36           -3.5442     2.2856    -1.5604 H       
  37 H37           -3.9943     0.5750    -1.7586 H       
  38 H38           -2.0177     0.0437     1.5839 H       
  39 H39           -0.0239     3.8193     1.5666 H       
  40 H40           -3.2666     0.7833     3.5978 H       
  41 H41           -3.6410     2.5482     5.1970 H       
  42 H42           -2.1020     4.9926     4.8796 H       
  43 H43           -4.1418     4.1716     6.8591 H       
  44 H44           -1.6844     6.6335     5.4415 H       
  45 H45           -2.4940     9.6252     8.3488 H       
  46 H46           -1.2849     8.8381     6.3716 H       
  47 H47           -2.8789     9.6823    10.3818 H       
  48 H48           -4.1575    10.3534     9.3410 H       
  49 H49           -4.5129    10.9910    11.7108 H       
  50 H50           -5.8274     9.9423    11.1273 H       
  51 H51           -4.5489     9.2712    12.1681 H       
@<TRIPOS>BOND
   1    1    2 2
   2    1    3 2
   3    1    6 am
   4    1   12 1
   5    4   22 1
   6    4   26 1
   7    5   21 2
   8    6   10 1
   9    6   11 1
  10    7   16 ar
  11    7   18 ar
  12    8    9 1
  13    8   18 1
  14    8   41 1
  15    9   20 1
  16    9   42 1
  17   10   13 1
  18   10   28 1
  19   10   29 1
  20   11   14 1
  21   11   30 1
  22   11   31 1
  23   12   15 ar
  24   12   16 ar
  25   13   32 1
  26   13   33 1
  27   13   34 1
  28   14   35 1
  29   14   36 1
  30   14   37 1
  31   15   17 ar
  32   15   38 1
  33   16   39 1
  34   17   18 ar
  35   17   40 1
  36   19   20 2
  37   19   21 1
  38   19   23 1
  39   20   43 1
  40   21   22 1
  41   22   24 2
  42   23   25 2
  43   23   44 1
  44   24   25 1
  45   24   45 1
  46   25   46 1
  47   26   27 1
  48   26   47 1
  49   26   48 1
  50   27   49 1
  51   27   50 1
  52   27   51 1

#	End of record

#	Name: 6523757
#	Creating user name:	landrgr1
#	Creation time:	28. 01. 2015 13:52

#	Modifying user name:	landrgr1
#	Modification time:	28. 01. 2015 13:52

#	Program:	corina 3.48 0006  22.01.2010

@<TRIPOS>MOLECULE
6523757
  47   48    0    0    0
SMALL
NO_CHARGES


@<TRIPOS>ATOM
   1 O1            -0.0164     1.3562     0.0095 O.3     
   2 O2             3.0593    -0.5824    -6.2465 O.3     
   3 O3            -0.0595    -4.0218    -0.0286 O.2     
   4 O4             7.8445     1.0258    -4.3912 O.2     
   5 N5             3.6028    -2.0706    -0.0444 N.pl3   
   6 N6             5.5244    -1.4499    -2.0021 N.pl3   
   7 C7             4.8788    -2.7902    -0.0609 C.3     
   8 C8             5.9590    -1.8989    -0.6770 C.3     
   9 C9             5.2757    -3.1574     1.3703 C.3     
  10 C10            2.4473    -2.7534    -0.0361 C.2     
  11 C11            6.3177    -0.6520    -2.7338 C.2     
  12 C12            1.2311    -2.0674    -0.0203 C.2     
  13 C13            5.9034    -0.2239    -3.9968 C.2     
  14 C14            1.1992    -0.6546    -0.0129 C.2     
  15 C15           -0.0420    -2.7983    -0.0173 C.2     
  16 C16            4.6520    -0.6216    -4.5193 C.2     
  17 C17            6.7558     0.6539    -4.8080 C.2     
  18 C18            0.0021    -0.0041     0.0020 C.2     
  19 C19            4.2660    -0.1928    -5.7536 C.2     
  20 C20           -1.2403    -2.0644    -0.0017 C.2     
  21 C21           -1.2059    -0.7037     0.0103 C.2     
  22 C22            6.2958     1.0587    -6.0726 C.2     
  23 C23            5.0825     0.6376    -6.5233 C.2     
  24 C24            1.2479     2.0222     0.0010 C.3     
  25 C25            2.2639    -1.4325    -5.4178 C.3     
  26 H26            4.7757    -3.6990    -0.6539 H       
  27 H27            6.8863    -2.4641    -0.7710 H       
  28 H28            6.1246    -1.0329    -0.0362 H       
  29 H29            5.3788    -2.2487     1.9633 H       
  30 H30            4.5062    -3.7924     1.8093 H       
  31 H31            6.2251    -3.6929     1.3580 H       
  32 H32            3.5930    -1.1006    -0.0394 H       
  33 H33            4.6633    -1.7292    -2.3505 H       
  34 H34            2.4582    -3.8333    -0.0416 H       
  35 H35            7.2764    -0.3409    -2.3458 H       
  36 H36            2.1211    -0.0921    -0.0187 H       
  37 H37            4.0036    -1.2641    -3.9420 H       
  38 H38           -2.1891    -2.5802     0.0008 H       
  39 H39           -2.1346    -0.1526     0.0221 H       
  40 H40            6.9055     1.7044    -6.6873 H       
  41 H41            4.7417     0.9568    -7.4972 H       
  42 H42            1.8173     1.7322     0.8840 H       
  43 H43            1.8003     1.7417    -0.8958 H       
  44 H44            1.0905     3.1008     0.0083 H       
  45 H45            1.3301    -1.6675    -5.9287 H       
  46 H46            2.8086    -2.3544    -5.2141 H       
  47 H47            2.0462    -0.9239    -4.4786 H       
@<TRIPOS>BOND
   1    1   18 1
   2    1   24 1
   3    2   19 1
   4    2   25 1
   5    3   15 2
   6    4   17 2
   7    5    7 1
   8    5   10 1
   9    5   32 1
  10    6    8 1
  11    6   11 1
  12    6   33 1
  13    7    8 1
  14    7    9 1
  15    7   26 1
  16    8   27 1
  17    8   28 1
  18    9   29 1
  19    9   30 1
  20    9   31 1
  21   10   12 2
  22   10   34 1
  23   11   13 2
  24   11   35 1
  25   12   14 1
  26   12   15 1
  27   13   16 1
  28   13   17 1
  29   14   18 2
  30   14   36 1
  31   15   20 1
  32   16   19 2
  33   16   37 1
  34   17   22 1
  35   18   21 1
  36   19   23 1
  37   20   21 2
  38   20   38 1
  39   21   39 1
  40   22   23 2
  41   22   40 1
  42   23   41 1
  43   24   42 1
  44   24   43 1
  45   24   44 1
  46   25   45 1
  47   25   46 1
  48   25   47 1

#	End of record

#	Name: 6521579
#	Creating user name:	landrgr1
#	Creation time:	28. 01. 2015 13:52

#	Modifying user name:	landrgr1
#	Modification time:	28. 01. 2015 13:52

#	Program:	corina 3.48 0006  22.01.2010

@<TRIPOS>MOLECULE
6521579
  38   39    0    0    0
SMALL
NO_CHARGES


@<TRIPOS>ATOM
   1 S1            -4.2288    -1.4155    -0.2609 S.2     
   2 O2            -0.0173     1.4248     0.0099 O.3     
   3 N3            -1.6352     2.7946    -6.6921 N.2     
   4 N4            -3.3158     0.5889    -3.5551 N.pl3   
   5 N5            -2.1054    -0.1483    -1.2305 N.am    
   6 N6            -4.0050    -0.1536    -2.5873 N.am    
   7 C7            -3.7643     2.1509    -6.9572 C.ar    
   8 C8            -3.2549     1.6766    -5.6554 C.2     
   9 C9            -2.6847     2.8442    -7.5458 C.ar    
  10 C10           -1.9152     2.1377    -5.5991 C.2     
  11 C11           -4.9777     2.0455    -7.6246 C.ar    
  12 C12           -3.9349     0.9438    -4.7004 C.2     
  13 C13           -2.8593     3.4217    -8.8086 C.ar    
  14 C14           -0.9622     1.9055    -4.4550 C.3     
  15 C15           -5.1257     2.6237    -8.8679 C.ar    
  16 C16           -4.0692     3.3072    -9.4537 C.ar    
  17 C17           -1.4333    -0.5336     0.0129 C.3     
  18 C18            0.0021    -0.0041     0.0020 C.3     
  19 C19           -3.3867    -0.5081    -1.4434 C.2     
  20 C20            1.2801     2.0237     0.0007 C.3     
  21 H21           -5.8017     1.5140    -7.1718 H       
  22 H22           -4.9617     0.6555    -4.8710 H       
  23 H23           -2.0458     3.9566    -9.2759 H       
  24 H24           -0.0030     2.3713    -4.6809 H       
  25 H25           -1.3733     2.3430    -3.5452 H       
  26 H26           -0.8211     0.8343    -4.3114 H       
  27 H27           -6.0682     2.5432    -9.3889 H       
  28 H28           -4.1985     3.7547   -10.4281 H       
  29 H29           -1.9701    -0.1109     0.8621 H       
  30 H30           -1.4190    -1.6203     0.0965 H       
  31 H31           -2.3937     0.8478    -3.4018 H       
  32 H32            0.5123    -0.3556    -0.8948 H       
  33 H33            0.5293    -0.3651     0.8851 H       
  34 H34           -1.6283     0.3658    -1.9006 H       
  35 H35           -4.9271    -0.4126    -2.7406 H       
  36 H36            1.8338     1.7047     0.8837 H       
  37 H37            1.8168     1.7143    -0.8961 H       
  38 H38            1.1793     3.1090     0.0075 H       
@<TRIPOS>BOND
   1    1   19 2
   2    2   18 1
   3    2   20 1
   4    3    9 1
   5    3   10 2
   6    4    6 1
   7    4   12 1
   8    4   31 1
   9    5   17 1
  10    5   19 am
  11    5   34 1
  12    6   19 am
  13    6   35 1
  14    7    8 1
  15    7    9 ar
  16    7   11 ar
  17    8   10 1
  18    8   12 2
  19    9   13 ar
  20   10   14 1
  21   11   15 ar
  22   11   21 1
  23   12   22 1
  24   13   16 ar
  25   13   23 1
  26   14   24 1
  27   14   25 1
  28   14   26 1
  29   15   16 ar
  30   15   27 1
  31   16   28 1
  32   17   18 1
  33   17   29 1
  34   17   30 1
  35   18   32 1
  36   18   33 1
  37   20   36 1
  38   20   37 1
  39   20   38 1

#	End of record

#	Name: 6520001
#	Creating user name:	landrgr1
#	Creation time:	28. 01. 2015 13:52

#	Modifying user name:	landrgr1
#	Modification time:	28. 01. 2015 13:52

#	Program:	corina 3.48 0006  22.01.2010

@<TRIPOS>MOLECULE
6520001
  35   37    0    0    0
SMALL
NO_CHARGES


@<TRIPOS>ATOM
   1 S1            -0.0172     1.4168     0.0098 S.o2    
   2 S2            -2.3879     5.4527    -1.4460 S.3     
   3 S3            -3.5194     2.8943    -0.0837 S.2     
   4 O4             0.0021    -0.0041     0.0020 O.2     
   5 O5             1.1617     2.2101     0.0028 O.2     
   6 O6             0.6389     3.6088    -2.6813 O.2     
   7 N7            -1.2154     3.2310    -1.5061 N.am    
   8 N8            -0.9002     1.8797    -1.3124 N.am    
   9 N9            -1.9945     7.9729    -2.3725 N.ar    
  10 C10           -0.9297     1.8941     1.4396 C.ar    
  11 C11           -0.3998     4.0128    -2.1939 C.2     
  12 C12           -0.8460     5.4098    -2.3241 C.2     
  13 C13           -2.3429     3.7391    -0.9963 C.2     
  14 C14           -1.8430     1.0209     2.0000 C.ar    
  15 C15           -0.7281     3.1397     2.0041 C.ar    
  16 C16           -0.2234     6.4278    -2.9666 C.2     
  17 C17           -2.5589     1.3954     3.1217 C.ar    
  18 C18           -1.4439     3.5143     3.1258 C.ar    
  19 C19           -0.8322     7.7664    -2.9866 C.ar    
  20 C20           -2.3611     2.6430     3.6832 C.ar    
  21 C21           -0.1861     8.8130    -3.6512 C.ar    
  22 C22           -0.7728    10.0662    -3.6608 C.ar    
  23 C23           -2.5711     9.1557    -2.3685 C.ar    
  24 C24           -1.9853    10.2356    -3.0074 C.ar    
  25 H25           -1.1992     1.2154    -1.9528 H       
  26 H26           -1.9975     0.0462     1.5614 H       
  27 H27           -0.0110     3.8202     1.5691 H       
  28 H28            0.7198     6.2561    -3.4638 H       
  29 H29           -3.2730     0.7134     3.5591 H       
  30 H30           -1.2861     4.4873     3.5671 H       
  31 H31           -2.9207     2.9358     4.5593 H       
  32 H32            0.7575     8.6460    -4.1494 H       
  33 H33           -0.2974    10.8942    -4.1654 H       
  34 H34           -2.4679    11.2018    -2.9969 H       
  35 H35           -3.5147     9.2861    -1.8595 H       
@<TRIPOS>BOND
   1    1    4 2
   2    1    5 2
   3    1    8 am
   4    1   10 1
   5    2   12 1
   6    2   13 1
   7    3   13 2
   8    6   11 2
   9    7    8 1
  10    7   11 am
  11    7   13 am
  12    8   25 1
  13    9   19 ar
  14    9   23 ar
  15   10   14 ar
  16   10   15 ar
  17   11   12 1
  18   12   16 2
  19   14   17 ar
  20   14   26 1
  21   15   18 ar
  22   15   27 1
  23   16   19 1
  24   16   28 1
  25   17   20 ar
  26   17   29 1
  27   18   20 ar
  28   18   30 1
  29   19   21 ar
  30   20   31 1
  31   21   22 ar
  32   21   32 1
  33   22   24 ar
  34   22   33 1
  35   23   24 ar
  36   23   35 1
  37   24   34 1

#	End of record

#	Name: 6518935
#	Creating user name:	landrgr1
#	Creation time:	28. 01. 2015 13:52

#	Modifying user name:	landrgr1
#	Modification time:	28. 01. 2015 13:52

#	Program:	corina 3.48 0006  22.01.2010

@<TRIPOS>MOLECULE
6518935
  42   44    0    0    0
SMALL
NO_CHARGES


@<TRIPOS>ATOM
   1 Cl1            0.7619    -8.5434     0.1019 Cl      
   2 Cl2           -3.3087    -1.5273    -2.0625 Cl      
   3 F3            -7.1946     0.7809     1.5481 F       
   4 F4            -7.0472     1.7938    -0.4943 F       
   5 F5            -6.2375     2.8471     1.3642 F       
   6 O6            -0.2410     1.4390    -0.2508 O.3     
   7 O7             0.9714    -0.4042    -0.5219 O.2     
   8 N8             0.1517    -2.6443     0.1384 N.pl3   
   9 N9            -2.8386     0.6639     1.2014 N.ar    
  10 C10            1.6098    -4.5933     0.1355 C.ar    
  11 C11            0.3155    -4.0293     0.1297 C.ar    
  12 C12            1.7524    -6.0028     0.1270 C.ar    
  13 C13           -0.7848    -4.8594     0.1159 C.ar    
  14 C14            2.7564    -3.7846     0.1437 C.ar    
  15 C15            0.6039    -6.8146     0.1130 C.ar    
  16 C16            3.0404    -6.5642     0.1328 C.ar    
  17 C17           -0.6328    -6.2429     0.1076 C.ar    
  18 C18           -1.2618    -0.7572     0.0182 C.2     
  19 C19           -1.1001    -2.1063     0.1327 C.2     
  20 C20           -2.6045    -0.1560     0.1835 C.ar    
  21 C21            3.9894    -4.3631     0.1487 C.ar    
  22 C22            4.1307    -5.7489     0.1464 C.ar    
  23 C23           -3.6152    -0.4557    -0.7316 C.ar    
  24 C24           -5.0653     0.9657     0.5157 C.ar    
  25 C25           -4.8652     0.1143    -0.5626 C.ar    
  26 C26           -4.0202     1.2189     1.3836 C.ar    
  27 C27           -0.1078     0.0967    -0.2682 C.2     
  28 C28           -6.4102     1.6084     0.7374 C.3     
  29 C29            0.9479     2.2113    -0.4295 C.3     
  30 H30           -1.7763    -4.4314     0.1117 H       
  31 H31            0.9290    -2.0641     0.1484 H       
  32 H32            2.6617    -2.7088     0.1457 H       
  33 H33            3.1649    -7.6370     0.1269 H       
  34 H34           -1.5095    -6.8736     0.0972 H       
  35 H35           -1.9642    -2.7484     0.2189 H       
  36 H36            4.8704    -3.7383     0.1546 H       
  37 H37            5.1196    -6.1829     0.1508 H       
  38 H38           -5.6669    -0.0983    -1.2543 H       
  39 H39           -4.1738     1.8806     2.2232 H       
  40 H40            0.7006     3.2723    -0.3946 H       
  41 H41            1.6563     1.9770     0.3651 H       
  42 H42            1.3938     1.9737    -1.3954 H       
@<TRIPOS>BOND
   1    1   15 1
   2    2   23 1
   3    3   28 1
   4    4   28 1
   5    5   28 1
   6    6   27 1
   7    6   29 1
   8    7   27 2
   9    8   11 1
  10    8   19 1
  11    8   31 1
  12    9   20 ar
  13    9   26 ar
  14   10   11 ar
  15   10   12 ar
  16   10   14 ar
  17   11   13 ar
  18   12   15 ar
  19   12   16 ar
  20   13   17 ar
  21   13   30 1
  22   14   21 ar
  23   14   32 1
  24   15   17 ar
  25   16   22 ar
  26   16   33 1
  27   17   34 1
  28   18   19 2
  29   18   20 1
  30   18   27 1
  31   19   35 1
  32   20   23 ar
  33   21   22 ar
  34   21   36 1
  35   22   37 1
  36   23   25 ar
  37   24   25 ar
  38   24   26 ar
  39   24   28 1
  40   25   38 1
  41   26   39 1
  42   29   40 1
  43   29   41 1
  44   29   42 1

#	End of record

#	Name: 6512165
#	Creating user name:	landrgr1
#	Creation time:	28. 01. 2015 13:52

#	Modifying user name:	landrgr1
#	Modification time:	28. 01. 2015 13:52

#	Program:	corina 3.48 0006  22.01.2010

@<TRIPOS>MOLECULE
6512165
  59   61    0    0    0
SMALL
NO_CHARGES


@<TRIPOS>ATOM
   1 Br1          -11.3558     1.7958     2.2208 Br      
   2 O2            -0.8536    -2.3126     5.7799 O.3     
   3 O3            -4.0925    -2.8735    -0.2788 O.2     
   4 O4             0.4826    -3.2410     4.2707 O.2     
   5 O5            -6.5412    -3.8249    -0.6132 O.2     
   6 O6           -11.9338    -6.6733     0.9675 O.3     
   7 N7            -3.5376    -2.9255     1.8719 N.am    
   8 N8            -1.4238    -2.3861     3.5187 N.am    
   9 N9            -6.8218    -2.8690     1.3722 N.am    
  10 C10           -2.2723    -3.6185     1.5915 C.3     
  11 C11           -3.8444    -2.5443     3.2577 C.3     
  12 C12           -1.1170    -2.7673     2.1329 C.3     
  13 C13           -2.6891    -1.6931     3.7990 C.3     
  14 C14           -4.3987    -2.6398     0.8752 C.2     
  15 C15           -0.5604    -2.6673     4.5146 C.2     
  16 C16           -5.7078    -2.0458     1.1825 C.2     
  17 C17           -5.8346    -0.7024     1.2819 C.2     
  18 C18            0.1225    -2.6474     6.8014 C.3     
  19 C19           -7.1590    -0.1034     1.5074 C.ar    
  20 C20           -7.2128    -3.7097     0.3940 C.2     
  21 C21           -8.4560    -4.4904     0.5452 C.ar    
  22 C22           -0.3813    -2.1689     8.1646 C.3     
  23 C23           -7.2721     1.1220     2.1726 C.ar    
  24 C24           -8.3111    -0.7534     1.0527 C.ar    
  25 C25           -8.8080    -5.4406    -0.4172 C.ar    
  26 C26           -9.2815    -4.2855     1.6540 C.ar    
  27 C27           -8.5165     1.6775     2.3799 C.ar    
  28 C28           -9.5488    -0.1857     1.2673 C.ar    
  29 C29           -9.6532     1.0254     1.9314 C.ar    
  30 C30           -9.9689    -6.1669    -0.2725 C.ar    
  31 C31          -10.4406    -5.0160     1.7913 C.ar    
  32 C32          -10.7903    -5.9557     0.8287 C.ar    
  33 C33          -12.7314    -6.4059     2.1227 C.3     
  34 H34           -2.2713    -4.5914     2.0829 H       
  35 H35           -2.1574    -3.7492     0.5155 H       
  36 H36           -4.7678    -1.9656     3.2820 H       
  37 H37           -3.9554    -3.4408     3.8677 H       
  38 H38           -1.0060    -1.8708     1.5229 H       
  39 H39           -0.1936    -3.3460     2.1086 H       
  40 H40           -2.8040    -1.5624     4.8751 H       
  41 H41           -2.6901    -0.7202     3.3077 H       
  42 H42           -4.9635    -0.0699     1.1956 H       
  43 H43           -7.3134    -2.8351     2.2077 H       
  44 H44            0.2667    -3.7275     6.8260 H       
  45 H45            1.0699    -2.1595     6.5725 H       
  46 H46           -1.3287    -2.6568     8.3935 H       
  47 H47            0.3515    -2.4203     8.9314 H       
  48 H48           -0.5255    -1.0888     8.1399 H       
  49 H49           -6.3866     1.6314     2.5232 H       
  50 H50           -8.2311    -1.6976     0.5344 H       
  51 H51           -8.1706    -5.6047    -1.2735 H       
  52 H52           -9.0105    -3.5555     2.4024 H       
  53 H53           -8.6055     2.6233     2.8936 H       
  54 H54          -10.4392    -0.6862     0.9165 H       
  55 H55          -10.2416    -6.9014    -1.0158 H       
  56 H56          -11.0790    -4.8585     2.6482 H       
  57 H57          -12.1484    -6.6073     3.0213 H       
  58 H58          -13.0405    -5.3606     2.1168 H       
  59 H59          -13.6138    -7.0457     2.1110 H       
@<TRIPOS>BOND
   1    1   29 1
   2    2   15 1
   3    2   18 1
   4    3   14 2
   5    4   15 2
   6    5   20 2
   7    6   32 1
   8    6   33 1
   9    7   10 1
  10    7   11 1
  11    7   14 am
  12    8   12 1
  13    8   13 1
  14    8   15 am
  15    9   16 1
  16    9   20 am
  17    9   43 1
  18   10   12 1
  19   10   34 1
  20   10   35 1
  21   11   13 1
  22   11   36 1
  23   11   37 1
  24   12   38 1
  25   12   39 1
  26   13   40 1
  27   13   41 1
  28   14   16 1
  29   16   17 2
  30   17   19 1
  31   17   42 1
  32   18   22 1
  33   18   44 1
  34   18   45 1
  35   19   23 ar
  36   19   24 ar
  37   20   21 1
  38   21   25 ar
  39   21   26 ar
  40   22   46 1
  41   22   47 1
  42   22   48 1
  43   23   27 ar
  44   23   49 1
  45   24   28 ar
  46   24   50 1
  47   25   30 ar
  48   25   51 1
  49   26   31 ar
  50   26   52 1
  51   27   29 ar
  52   27   53 1
  53   28   29 ar
  54   28   54 1
  55   30   32 ar
  56   30   55 1
  57   31   32 ar
  58   31   56 1
  59   33   57 1
  60   33   58 1
  61   33   59 1

#	End of record

#	Name: 6511112
#	Creating user name:	landrgr1
#	Creation time:	28. 01. 2015 13:52

#	Modifying user name:	landrgr1
#	Modification time:	28. 01. 2015 13:52

#	Program:	corina 3.48 0006  22.01.2010

@<TRIPOS>MOLECULE
6511112
  48   50    0    0    0
SMALL
NO_CHARGES


@<TRIPOS>ATOM
   1 Cl1            3.9431     5.1983    -1.5745 Cl      
   2 S2             0.0049     1.8099     0.4862 S.3     
   3 S3            -1.2849    -0.9161     1.2545 S.2     
   4 O4             3.4602     0.3529     0.6008 O.2     
   5 O5             2.4381    -2.3954     5.2650 O.2     
   6 O6             3.6481    -6.8251     6.2444 O.2     
   7 N7             1.3446    -0.2730     0.9072 N.am    
   8 N8             2.9369    -4.5479     5.0658 N.am    
   9 N9             3.1490    -4.6703     6.4452 N.am    
  10 C10            1.7228    -1.6528     1.2226 C.3     
  11 C11            1.9545    -1.7865     2.7290 C.3     
  12 C12            2.3495    -3.2275     3.0583 C.3     
  13 C13            2.2738     0.6228     0.6184 C.2     
  14 C14            0.0568     0.0897     0.9094 C.2     
  15 C15            1.7649     1.9683     0.3209 C.2     
  16 C16            2.5777    -3.3591     4.5421 C.2     
  17 C17            2.4762     3.0763    -0.0055 C.2     
  18 C18            1.8033     4.3791    -0.1029 C.ar    
  19 C19            2.4018     5.4298    -0.8101 C.ar    
  20 C20            0.5586     4.5753     0.5053 C.ar    
  21 C21            3.5082    -5.8591     6.9689 C.2     
  22 C22            1.7623     6.6496    -0.8967 C.ar    
  23 C23           -0.0663     5.8004     0.4088 C.ar    
  24 C24            3.7321    -5.9883     8.4246 C.ar    
  25 C25            0.5337     6.8355    -0.2873 C.ar    
  26 C26            4.1041    -7.2180     8.9702 C.ar    
  27 C27            3.5778    -4.8798     9.2586 C.ar    
  28 C28            4.3114    -7.3318    10.3293 C.ar    
  29 C29            3.7882    -5.0071    10.6161 C.ar    
  30 C30            4.1513    -6.2303    11.1512 C.ar    
  31 H31            0.9234    -2.3277     0.9166 H       
  32 H32            2.6386    -1.9093     0.6900 H       
  33 H33            2.7539    -1.1116     3.0350 H       
  34 H34            1.0387    -1.5300     3.2616 H       
  35 H35            1.5501    -3.9023     2.7524 H       
  36 H36            3.2653    -3.4839     2.5257 H       
  37 H37            3.5370     3.0010    -0.1936 H       
  38 H38            3.0485    -5.3187     4.4877 H       
  39 H39            0.0884     3.7690     1.0486 H       
  40 H40            3.0374    -3.8995     7.0234 H       
  41 H41            2.2219     7.4612    -1.4410 H       
  42 H42           -1.0273     5.9528     0.8775 H       
  43 H43            0.0385     7.7927    -0.3585 H       
  44 H44            4.2291    -8.0786     8.3297 H       
  45 H45            3.2948    -3.9244     8.8421 H       
  46 H46            4.5990    -8.2828    10.7528 H       
  47 H47            3.6692    -4.1502    11.2625 H       
  48 H48            4.3147    -6.3247    12.2146 H       
@<TRIPOS>BOND
   1    1   19 1
   2    2   14 1
   3    2   15 1
   4    3   14 2
   5    4   13 2
   6    5   16 2
   7    6   21 2
   8    7   10 1
   9    7   13 am
  10    7   14 am
  11    8    9 1
  12    8   16 am
  13    8   38 1
  14    9   21 am
  15    9   40 1
  16   10   11 1
  17   10   31 1
  18   10   32 1
  19   11   12 1
  20   11   33 1
  21   11   34 1
  22   12   16 1
  23   12   35 1
  24   12   36 1
  25   13   15 1
  26   15   17 2
  27   17   18 1
  28   17   37 1
  29   18   19 ar
  30   18   20 ar
  31   19   22 ar
  32   20   23 ar
  33   20   39 1
  34   21   24 1
  35   22   25 ar
  36   22   41 1
  37   23   25 ar
  38   23   42 1
  39   24   26 ar
  40   24   27 ar
  41   25   43 1
  42   26   28 ar
  43   26   44 1
  44   27   29 ar
  45   27   45 1
  46   28   30 ar
  47   28   46 1
  48   29   30 ar
  49   29   47 1
  50   30   48 1

#	End of record

#	Name: 6509284
#	Creating user name:	landrgr1
#	Creation time:	28. 01. 2015 13:52

#	Modifying user name:	landrgr1
#	Modification time:	28. 01. 2015 13:52

#	Program:	corina 3.48 0006  22.01.2010

@<TRIPOS>MOLECULE
6509284
  42   44    0    0    0
SMALL
NO_CHARGES


@<TRIPOS>ATOM
   1 S1            -0.1704     1.7270     0.6730 S.3     
   2 S2             1.7613     3.2728     2.5611 S.2     
   3 O3            -0.4413    -6.4136     0.3135 O.3     
   4 O4            -2.9687    -5.3275     0.2773 O.3     
   5 O5             0.8280    -1.5760     2.1442 O.2     
   6 O6            -0.3534    -9.3450     0.2633 O.3     
   7 O7            -0.5505    -6.5032    -1.9046 O.2     
   8 N8             1.2866     0.5915     2.3750 N.am    
   9 C9            -0.2963    -0.0416     0.7518 C.2     
  10 C10           -0.9178    -2.3138     0.0860 C.ar    
  11 C11            0.6473    -0.4195     1.8108 C.2     
  12 C12           -1.0836    -0.8569     0.0050 C.2     
  13 C13            2.2564     0.3460     3.4454 C.3     
  14 C14           -2.0420    -3.1462     0.1446 C.ar    
  15 C15           -1.8793    -4.5158     0.2203 C.ar    
  16 C16            0.3650    -2.8750     0.0992 C.ar    
  17 C17            1.0417     1.8399     1.9610 C.2     
  18 C18           -0.5983    -5.0662     0.2386 C.ar    
  19 C19            0.5174    -4.2418     0.1748 C.ar    
  20 C20            3.6249     0.1455     2.8470 C.2     
  21 C21           -0.4788    -7.1000    -0.8472 C.2     
  22 C22           -0.4332    -8.5638    -0.8341 C.2     
  23 C23           -4.2503    -4.6958     0.2548 C.3     
  24 C24            4.6290     0.8863     3.2457 C.2     
  25 C25           -0.4636    -9.3782    -1.9310 C.2     
  26 C26           -0.3987   -10.6969    -1.4562 C.2     
  27 C27           -0.3324   -10.6316    -0.1077 C.2     
  28 H28           -1.8320    -0.4341    -0.6489 H       
  29 H29            2.2768     1.2016     4.1204 H       
  30 H30            1.9676    -0.5471     3.9995 H       
  31 H31           -3.0337    -2.7187     0.1310 H       
  32 H32            1.2346    -2.2363     0.0496 H       
  33 H33            1.5073    -4.6736     0.1848 H       
  34 H34            3.7778    -0.6090     2.0896 H       
  35 H35           -5.0306    -5.4551     0.3057 H       
  36 H36           -4.3398    -4.0250     1.1093 H       
  37 H37           -4.3580    -4.1253    -0.6677 H       
  38 H38            5.6098     0.7426     2.8169 H       
  39 H39            4.4761     1.6408     4.0032 H       
  40 H40           -0.5259    -9.0670    -2.9634 H       
  41 H41           -0.4012   -11.5953    -2.0555 H       
  42 H42           -0.2723   -11.4778     0.5606 H       
@<TRIPOS>BOND
   1    1    9 1
   2    1   17 1
   3    2   17 2
   4    3   18 1
   5    3   21 1
   6    4   15 1
   7    4   23 1
   8    5   11 2
   9    6   22 1
  10    6   27 1
  11    7   21 2
  12    8   11 am
  13    8   13 1
  14    8   17 am
  15    9   11 1
  16    9   12 2
  17   10   12 1
  18   10   14 ar
  19   10   16 ar
  20   12   28 1
  21   13   20 1
  22   13   29 1
  23   13   30 1
  24   14   15 ar
  25   14   31 1
  26   15   18 ar
  27   16   19 ar
  28   16   32 1
  29   18   19 ar
  30   19   33 1
  31   20   24 2
  32   20   34 1
  33   21   22 1
  34   22   25 2
  35   23   35 1
  36   23   36 1
  37   23   37 1
  38   24   38 1
  39   24   39 1
  40   25   26 1
  41   25   40 1
  42   26   27 2
  43   26   41 1
  44   27   42 1

#	End of record

#	Name: 6508301
#	Creating user name:	landrgr1
#	Creation time:	28. 01. 2015 13:52

#	Modifying user name:	landrgr1
#	Modification time:	28. 01. 2015 13:52

#	Program:	corina 3.48 0006  22.01.2010

@<TRIPOS>MOLECULE
6508301
  41   42    0    0    0
SMALL
NO_CHARGES


@<TRIPOS>ATOM
   1 Br1            0.0652    -4.6621    -0.0269 Br      
   2 S2            -0.0218     1.7577     0.0117 S.3     
   3 O3             7.0138     7.3794    -0.0249 O.3     
   4 O4             0.9045     4.3969     0.0170 O.2     
   5 O5             5.0109    11.5561     0.0164 O.2     
   6 N6             3.1177     4.2442    -0.0049 N.am    
   7 N7             3.2567     5.6382     0.0012 N.pl3   
   8 C8            -1.1908    -0.7166     0.0096 C.ar    
   9 C9             0.0021    -0.0041     0.0020 C.ar    
  10 C10            1.2295    -2.0645    -0.0217 C.ar    
  11 C11            1.2141    -0.6840    -0.0137 C.ar    
  12 C12           -1.1686    -2.0974     0.0015 C.ar    
  13 C13            0.0396    -2.7713    -0.0146 C.ar    
  14 C14           -2.5072     0.0166     0.0329 C.3     
  15 C15            2.5432    -2.8026    -0.0387 C.3     
  16 C16            1.7399     2.1898    -0.0028 C.3     
  17 C17            4.6188     7.5794    -0.0013 C.2     
  18 C18            1.8894     3.6894     0.0038 C.2     
  19 C19            4.4803     6.1910    -0.0075 C.2     
  20 C20            5.9102     8.1658    -0.0105 C.2     
  21 C21            3.4722     8.4065     0.0082 C.2     
  22 C22            6.0378     9.5249    -0.0044 C.2     
  23 C23            3.6097     9.7547     0.0142 C.2     
  24 C24            4.8937    10.3371     0.0109 C.2     
  25 H25            2.1430    -0.1330    -0.0199 H       
  26 H26           -2.0955    -2.6518     0.0074 H       
  27 H27           -2.8371     0.2035    -0.9890 H       
  28 H28           -3.2514    -0.5892     0.5499 H       
  29 H29           -2.3852     0.9658     0.5546 H       
  30 H30            2.2236     1.7726     0.8804 H       
  31 H31            2.2066     1.7821    -0.8995 H       
  32 H32            2.8700    -2.9864     0.9848 H       
  33 H33            2.4191    -3.7535    -0.5568 H       
  34 H34            3.2909    -2.2017    -0.5564 H       
  35 H35            5.3574     5.5609    -0.0192 H       
  36 H36            3.9054     3.6783    -0.0155 H       
  37 H37            2.4870     7.9640     0.0104 H       
  38 H38            2.4689     6.2042     0.0118 H       
  39 H39            7.0194     9.9751    -0.0110 H       
  40 H40            2.7328    10.3851     0.0211 H       
  41 H41            7.8467     7.8707    -0.0302 H       
@<TRIPOS>BOND
   1    1   13 1
   2    2    9 1
   3    2   16 1
   4    3   20 1
   5    3   41 1
   6    4   18 2
   7    5   24 2
   8    6    7 1
   9    6   18 am
  10    6   36 1
  11    7   19 1
  12    7   38 1
  13    8    9 ar
  14    8   12 ar
  15    8   14 1
  16    9   11 ar
  17   10   11 ar
  18   10   13 ar
  19   10   15 1
  20   11   25 1
  21   12   13 ar
  22   12   26 1
  23   14   27 1
  24   14   28 1
  25   14   29 1
  26   15   32 1
  27   15   33 1
  28   15   34 1
  29   16   18 1
  30   16   30 1
  31   16   31 1
  32   17   19 2
  33   17   20 1
  34   17   21 1
  35   19   35 1
  36   20   22 2
  37   21   23 2
  38   21   37 1
  39   22   24 1
  40   22   39 1
  41   23   24 1
  42   23   40 1

#	End of record

#	Name: 6506958
#	Creating user name:	landrgr1
#	Creation time:	28. 01. 2015 13:52

#	Modifying user name:	landrgr1
#	Modification time:	28. 01. 2015 13:52

#	Program:	corina 3.48 0006  22.01.2010

@<TRIPOS>MOLECULE
6506958
  46   49    0    0    0
SMALL
NO_CHARGES


@<TRIPOS>ATOM
   1 Cl1           -1.2731    -0.4500    -2.6904 Cl      
   2 S2            -0.0225     1.8097     0.0120 S.3     
   3 S3             5.4500     4.1980    -0.0280 S.3     
   4 S4             2.3376     3.8659     0.0005 S.3     
   5 O5             8.1724     4.8393    -0.0511 O.2     
   6 N6            14.4011     5.0077    -0.1118 N.2     
   7 N7            10.4851     3.5262    -0.0801 N.pl3   
   8 N8             9.2358     2.8923    -0.0712 N.am    
   9 N9             2.6698     1.3821    -0.0160 N.2     
  10 N10            3.9324     1.9331    -0.0251 N.2     
  11 C11           14.1804     2.7786    -0.1196 C.ar    
  12 C12           12.8484     3.4148    -0.1035 C.2     
  13 C13           15.1008     3.8489    -0.1240 C.ar    
  14 C14           14.6317     1.4652    -0.1300 C.ar    
  15 C15           13.1109     4.8083    -0.0999 C.2     
  16 C16           16.4708     3.5631    -0.1389 C.ar    
  17 C17           11.6155     2.7893    -0.0947 C.2     
  18 C18           15.9867     1.2089    -0.1446 C.ar    
  19 C19           16.8985     2.2554    -0.1490 C.ar    
  20 C20           -1.4117    -0.5257     0.0127 C.ar    
  21 C21            0.0021    -0.0041     0.0020 C.3     
  22 C22           -2.0724    -0.7588    -1.1806 C.ar    
  23 C23           -2.0467    -0.7767     1.2142 C.ar    
  24 C24           -3.3702    -1.2375    -1.1700 C.ar    
  25 C25           -3.3437    -1.2556     1.2242 C.ar    
  26 C26           -4.0063    -1.4828     0.0326 C.ar    
  27 C27            8.1068     3.6283    -0.0565 C.2     
  28 C28            6.7629     2.9464    -0.0470 C.3     
  29 C29            1.6887     2.2294    -0.0021 C.2     
  30 C30            3.9785     3.2287    -0.0186 C.2     
  31 H31           13.9251     0.6485    -0.1263 H       
  32 H32           12.3599     5.5843    -0.0884 H       
  33 H33           17.1912     4.3677    -0.1428 H       
  34 H34           11.5571     1.7109    -0.0996 H       
  35 H35           16.3403     0.1884    -0.1527 H       
  36 H36           17.9568     2.0406    -0.1605 H       
  37 H37            0.5123    -0.3556    -0.8948 H       
  38 H38            0.5293    -0.3651     0.8851 H       
  39 H39           10.5376     4.4947    -0.0757 H       
  40 H40           -1.5296    -0.5990     2.1456 H       
  41 H41            9.1833     1.9237    -0.0755 H       
  42 H42           -3.8864    -1.4193    -2.1010 H       
  43 H43           -3.8392    -1.4523     2.1634 H       
  44 H44           -5.0195    -1.8566     0.0410 H       
  45 H45            6.6800     2.3193     0.8407 H       
  46 H46            6.6627     2.3283    -0.9391 H       
@<TRIPOS>BOND
   1    1   22 1
   2    2   21 1
   3    2   29 1
   4    3   28 1
   5    3   30 1
   6    4   29 1
   7    4   30 1
   8    5   27 2
   9    6   13 1
  10    6   15 2
  11    7    8 1
  12    7   17 1
  13    7   39 1
  14    8   27 am
  15    8   41 1
  16    9   10 1
  17    9   29 2
  18   10   30 2
  19   11   12 1
  20   11   13 ar
  21   11   14 ar
  22   12   15 1
  23   12   17 2
  24   13   16 ar
  25   14   18 ar
  26   14   31 1
  27   15   32 1
  28   16   19 ar
  29   16   33 1
  30   17   34 1
  31   18   19 ar
  32   18   35 1
  33   19   36 1
  34   20   21 1
  35   20   22 ar
  36   20   23 ar
  37   21   37 1
  38   21   38 1
  39   22   24 ar
  40   23   25 ar
  41   23   40 1
  42   24   26 ar
  43   24   42 1
  44   25   26 ar
  45   25   43 1
  46   26   44 1
  47   27   28 1
  48   28   45 1
  49   28   46 1

#	End of record

#	Name: 6505712
#	Creating user name:	landrgr1
#	Creation time:	28. 01. 2015 13:52

#	Modifying user name:	landrgr1
#	Modification time:	28. 01. 2015 13:52

#	Program:	corina 3.48 0006  22.01.2010

@<TRIPOS>MOLECULE
6505712
  41   42    0    0    0
SMALL
NO_CHARGES


@<TRIPOS>ATOM
   1 Br1            7.0176    -8.3319     2.5876 Br      
   2 O2             0.0082     1.3752     0.6362 O.3     
   3 O3            -2.3052     0.0787    -0.0969 O.3     
   4 O4             4.6872    -2.9044    -0.7882 O.2     
   5 N5             3.8528    -4.5293     0.8183 N.pl3   
   6 C6             1.2783    -1.9804    -0.0167 C.ar    
   7 C7             2.5629    -2.7222     0.0105 C.2     
   8 C8             1.2445    -0.6305     0.3275 C.ar    
   9 C9             0.1044    -2.6312    -0.3918 C.ar    
  10 C10            0.0445     0.0579     0.3003 C.ar    
  11 C11           -1.1259    -0.5986    -0.0704 C.ar    
  12 C12            2.7428    -3.7441     0.8991 C.2     
  13 C13           -1.0903    -1.9402    -0.4178 C.ar    
  14 C14            3.5993    -2.3719    -0.8818 C.2     
  15 C15            4.1024    -5.4895     1.8022 C.ar    
  16 C16            3.3561    -1.3375    -1.9503 C.3     
  17 C17            5.2339    -6.2910     1.7212 C.ar    
  18 C18            3.2222    -5.6408     2.8667 C.ar    
  19 C19            5.4776    -7.2398     2.6962 C.ar    
  20 C20            3.4714    -6.5906     3.8375 C.ar    
  21 C21            4.5955    -7.3916     3.7513 C.ar    
  22 C22            1.2465     1.9845     1.0069 C.3     
  23 C23           -3.4669    -0.6565    -0.4866 C.3     
  24 H24            2.1532    -0.1225     0.6150 H       
  25 H25            0.1296    -3.6762    -0.6632 H       
  26 H26            2.0049    -3.9295     1.6656 H       
  27 H27           -1.9992    -2.4458    -0.7090 H       
  28 H28            4.4700    -4.4219     0.0778 H       
  29 H29            4.2644    -1.2009    -2.5373 H       
  30 H30            2.5490    -1.6715    -2.6023 H       
  31 H31            3.0791    -0.3919    -1.4843 H       
  32 H32            5.9222    -6.1732     0.8974 H       
  33 H33            2.3441    -5.0158     2.9349 H       
  34 H34            2.7874    -6.7083     4.6649 H       
  35 H35            4.7878    -8.1339     4.5119 H       
  36 H36            1.0769     3.0334     1.2501 H       
  37 H37            1.6578     1.4718     1.8764 H       
  38 H38            1.9494     1.9131     0.1768 H       
  39 H39           -4.3366     0.0003    -0.4654 H       
  40 H40           -3.3295    -1.0449    -1.4958 H       
  41 H41           -3.6208    -1.4856     0.2040 H       
@<TRIPOS>BOND
   1    1   19 1
   2    2   10 1
   3    2   22 1
   4    3   11 1
   5    3   23 1
   6    4   14 2
   7    5   12 1
   8    5   15 1
   9    5   28 1
  10    6    7 1
  11    6    8 ar
  12    6    9 ar
  13    7   12 2
  14    7   14 1
  15    8   10 ar
  16    8   24 1
  17    9   13 ar
  18    9   25 1
  19   10   11 ar
  20   11   13 ar
  21   12   26 1
  22   13   27 1
  23   14   16 1
  24   15   17 ar
  25   15   18 ar
  26   16   29 1
  27   16   30 1
  28   16   31 1
  29   17   19 ar
  30   17   32 1
  31   18   20 ar
  32   18   33 1
  33   19   21 ar
  34   20   21 ar
  35   20   34 1
  36   21   35 1
  37   22   36 1
  38   22   37 1
  39   22   38 1
  40   23   39 1
  41   23   40 1
  42   23   41 1

#	End of record

#	Name: 6469761
#	Creating user name:	landrgr1
#	Creation time:	28. 01. 2015 13:52

#	Modifying user name:	landrgr1
#	Modification time:	28. 01. 2015 13:52

#	Program:	corina 3.48 0006  22.01.2010

@<TRIPOS>MOLECULE
6469761
  42   43    0    0    0
SMALL
NO_CHARGES


@<TRIPOS>ATOM
   1 O1            -0.7385     2.1222    -0.5177 O.3     
   2 O2            -6.2863    -1.1831     0.5404 O.2     
   3 O3             0.5586     0.4876     0.2409 O.2     
   4 N4            -7.1530    -3.1851     0.1239 N.am    
   5 N5            -4.8618    -2.7777    -0.0604 N.am    
   6 N6            -8.6432    -1.4506     0.6665 N.ar    
   7 C7           -10.8139    -3.0748     0.2826 C.ar    
   8 C8            -8.4507    -2.7092     0.3039 C.ar    
   9 C9            -3.7949    -1.8808    -0.0735 C.ar    
  10 C10           -9.5307    -3.5602     0.1005 C.ar    
  11 C11           -9.8544    -0.9603     0.8476 C.ar    
  12 C12          -10.9727    -1.7496     0.6635 C.ar    
  13 C13           -1.6739    -0.0975    -0.0996 C.ar    
  14 C14           -2.5312    -2.2993     0.3317 C.ar    
  15 C15           -3.9949    -0.5704    -0.4972 C.ar    
  16 C16           -1.4754    -1.4164     0.3201 C.ar    
  17 C17           -2.9438     0.3180    -0.5115 C.ar    
  18 C18          -12.0116    -3.9648     0.0718 C.3     
  19 C19           -6.1069    -2.3401     0.2132 C.2     
  20 C20          -10.0199     0.4795     1.2605 C.3     
  21 C21           -0.5454     0.8514    -0.1130 C.2     
  22 C22            0.4174     3.0008    -0.5049 C.3     
  23 C23            0.0064     4.3914    -0.9932 C.3     
  24 H24           -9.3707    -4.5865    -0.1954 H       
  25 H25          -11.9605    -1.3397     0.8140 H       
  26 H26           -2.3787    -3.3181     0.6561 H       
  27 H27           -4.9761    -0.2502    -0.8152 H       
  28 H28           -7.0029    -4.1245    -0.0656 H       
  29 H29           -4.7082    -3.7169    -0.2481 H       
  30 H30           -0.4958    -1.7408     0.6386 H       
  31 H31           -3.1006     1.3360    -0.8363 H       
  32 H32          -12.2661    -4.4596     1.0091 H       
  33 H33          -12.8568    -3.3633    -0.2627 H       
  34 H34          -11.7782    -4.7152    -0.6835 H       
  35 H35          -10.0944     1.1061     0.3718 H       
  36 H36          -10.9266     0.5847     1.8563 H       
  37 H37           -9.1584     0.7891     1.8523 H       
  38 H38            0.8078     3.0729     0.5102 H       
  39 H39            1.1875     2.5978    -1.1626 H       
  40 H40            0.8741     5.0510    -0.9836 H       
  41 H41           -0.3840     4.3193    -2.0083 H       
  42 H42           -0.7637     4.7945    -0.3355 H       
@<TRIPOS>BOND
   1    1   21 1
   2    1   22 1
   3    2   19 2
   4    3   21 2
   5    4    8 1
   6    4   19 am
   7    4   28 1
   8    5    9 1
   9    5   19 am
  10    5   29 1
  11    6    8 ar
  12    6   11 ar
  13    7   10 ar
  14    7   12 ar
  15    7   18 1
  16    8   10 ar
  17    9   14 ar
  18    9   15 ar
  19   10   24 1
  20   11   12 ar
  21   11   20 1
  22   12   25 1
  23   13   16 ar
  24   13   17 ar
  25   13   21 1
  26   14   16 ar
  27   14   26 1
  28   15   17 ar
  29   15   27 1
  30   16   30 1
  31   17   31 1
  32   18   32 1
  33   18   33 1
  34   18   34 1
  35   20   35 1
  36   20   36 1
  37   20   37 1
  38   22   23 1
  39   22   38 1
  40   22   39 1
  41   23   40 1
  42   23   41 1
  43   23   42 1

#	End of record

#	Name: 6466920
#	Creating user name:	landrgr1
#	Creation time:	28. 01. 2015 13:52

#	Modifying user name:	landrgr1
#	Modification time:	28. 01. 2015 13:52

#	Program:	corina 3.48 0006  22.01.2010

@<TRIPOS>MOLECULE
6466920
  42   43    0    0    0
SMALL
NO_CHARGES


@<TRIPOS>ATOM
   1 O1             5.0803     0.1535     1.7945 O.2     
   2 N2             0.4650     1.9060    -0.2604 N.3     
   3 N3             2.9686    -0.2719     2.3359 N.am    
   4 N4             4.7399    -0.8950     3.7228 N.am    
   5 C5             2.4811     0.3524     1.1035 C.3     
   6 C6             1.1147    -0.2343     0.7385 C.3     
   7 C7             2.3394     1.8621     1.3161 C.3     
   8 C8             0.5833     0.4646    -0.5150 C.3     
   9 C9             1.7725     2.5002     0.0458 C.3     
  10 C10           -0.1719     2.5902    -1.3936 C.3     
  11 C11           -0.3907     4.0632    -1.0424 C.3     
  12 C12            0.7317     2.4881    -2.6241 C.3     
  13 C13            4.2915    -0.3207     2.5890 C.2     
  14 C14            6.1151    -1.0456     3.9344 C.ar    
  15 C15            6.6343    -0.9639     5.2198 C.ar    
  16 C16            6.9625    -1.2826     2.8602 C.ar    
  17 C17            7.9919    -1.1128     5.4253 C.ar    
  18 C18            8.3192    -1.4307     3.0723 C.ar    
  19 C19            8.8339    -1.3427     4.3528 C.ar    
  20 H20            3.1870     0.1621     0.2949 H       
  21 H21            1.2172    -1.3019     0.5441 H       
  22 H22            0.4198    -0.0791     1.5638 H       
  23 H23            1.6638     2.0502     2.1505 H       
  24 H24            3.3168     2.2922     1.5343 H       
  25 H25           -0.3960     0.0591    -0.7693 H       
  26 H26            1.2717     0.2974    -1.3434 H       
  27 H27            2.4553     2.3235    -0.7852 H       
  28 H28            1.6569     3.5732     0.1988 H       
  29 H29           -1.1322     2.1213    -1.6081 H       
  30 H30            2.3392    -0.6502     2.9697 H       
  31 H31           -1.0344     4.1359    -0.1658 H       
  32 H32            0.5696     4.5321    -0.8279 H       
  33 H33           -0.8632     4.5709    -1.8833 H       
  34 H34            0.8876     1.4387    -2.8744 H       
  35 H35            0.2592     2.9958    -3.4650 H       
  36 H36            1.6920     2.9570    -2.4097 H       
  37 H37            4.1095    -1.2040     4.3921 H       
  38 H38            5.9773    -0.7836     6.0578 H       
  39 H39            6.5611    -1.3515     1.8599 H       
  40 H40            8.3964    -1.0494     6.4247 H       
  41 H41            8.9788    -1.6151     2.2373 H       
  42 H42            9.8952    -1.4585     4.5160 H       
@<TRIPOS>BOND
   1    1   13 2
   2    2    8 1
   3    2    9 1
   4    2   10 1
   5    3    5 1
   6    3   13 am
   7    3   30 1
   8    4   13 am
   9    4   14 1
  10    4   37 1
  11    5    6 1
  12    5    7 1
  13    5   20 1
  14    6    8 1
  15    6   21 1
  16    6   22 1
  17    7    9 1
  18    7   23 1
  19    7   24 1
  20    8   25 1
  21    8   26 1
  22    9   27 1
  23    9   28 1
  24   10   11 1
  25   10   12 1
  26   10   29 1
  27   11   31 1
  28   11   32 1
  29   11   33 1
  30   12   34 1
  31   12   35 1
  32   12   36 1
  33   14   15 ar
  34   14   16 ar
  35   15   17 ar
  36   15   38 1
  37   16   18 ar
  38   16   39 1
  39   17   19 ar
  40   17   40 1
  41   18   19 ar
  42   18   41 1
  43   19   42 1

#	End of record

#	Name: 6465428
#	Creating user name:	landrgr1
#	Creation time:	28. 01. 2015 13:52

#	Modifying user name:	landrgr1
#	Modification time:	28. 01. 2015 13:52

#	Program:	corina 3.48 0006  22.01.2010

@<TRIPOS>MOLECULE
6465428
  28   29    0    0    0
SMALL
NO_CHARGES


@<TRIPOS>ATOM
   1 Br1           -2.5725     0.1346    -0.8843 Br      
   2 F2             1.3497     6.0065    -0.6897 F       
   3 O3             2.2807     1.4162    -0.1905 O.2     
   4 N4             0.0798     1.3244     0.0952 N.am    
   5 N5             1.2336     3.3537     0.0982 N.am    
   6 C6             0.0948    -0.0752     0.1057 C.ar    
   7 C7             2.4448     4.0571     0.1117 C.ar    
   8 C8             1.2358     2.0100    -0.0057 C.2     
   9 C9            -1.0250    -0.7868    -0.3077 C.ar    
  10 C10            1.2304    -0.7556     0.5235 C.ar    
  11 C11            2.4819     5.3889    -0.2876 C.ar    
  12 C12            3.6094     3.4285     0.5289 C.ar    
  13 C13           -1.0064    -2.1683    -0.2966 C.ar    
  14 C14            1.2423    -2.1371     0.5323 C.ar    
  15 C15            3.6797     6.0795    -0.2728 C.ar    
  16 C16            4.8030     4.1248     0.5411 C.ar    
  17 C17            0.1249    -2.8424     0.1259 C.ar    
  18 C18            4.8389     5.4466     0.1380 C.ar    
  19 H19           -0.7629     1.8008     0.1566 H       
  20 H20            0.3932     3.8337     0.1637 H       
  21 H21            2.1038    -0.2055     0.8412 H       
  22 H22            3.5830     2.3959     0.8441 H       
  23 H23           -1.8762    -2.7221    -0.6176 H       
  24 H24            2.1258    -2.6667     0.8570 H       
  25 H25            3.7102     7.1136    -0.5826 H       
  26 H26            5.7092     3.6355     0.8662 H       
  27 H27            0.1368    -3.9223     0.1344 H       
  28 H28            5.7735     5.9877     0.1481 H       
@<TRIPOS>BOND
   1    1    9 1
   2    2   11 1
   3    3    8 2
   4    4    6 1
   5    4    8 am
   6    4   19 1
   7    5    7 1
   8    5    8 am
   9    5   20 1
  10    6    9 ar
  11    6   10 ar
  12    7   11 ar
  13    7   12 ar
  14    9   13 ar
  15   10   14 ar
  16   10   21 1
  17   11   15 ar
  18   12   16 ar
  19   12   22 1
  20   13   17 ar
  21   13   23 1
  22   14   17 ar
  23   14   24 1
  24   15   18 ar
  25   15   25 1
  26   16   18 ar
  27   16   26 1
  28   17   27 1
  29   18   28 1

#	End of record

#	Name: 6465167
#	Creating user name:	landrgr1
#	Creation time:	28. 01. 2015 13:52

#	Modifying user name:	landrgr1
#	Modification time:	28. 01. 2015 13:52

#	Program:	corina 3.48 0006  22.01.2010

@<TRIPOS>MOLECULE
6465167
  38   39    0    0    0
SMALL
NO_CHARGES


@<TRIPOS>ATOM
   1 O1             0.7625     0.7066    -0.6797 O.3     
   2 O2            -1.5986    -4.9440    -0.2449 O.2     
   3 O3            -2.7702   -10.4417    -1.6980 O.3     
   4 O4            -1.6893    -8.6137    -2.3434 O.2     
   5 N5            -3.7806    -4.6974     0.0894 N.am    
   6 N6            -2.3231    -2.8740     0.1067 N.am    
   7 C7            -3.9873    -6.0811     0.0490 C.ar    
   8 C8            -4.9909    -6.6564     0.8189 C.ar    
   9 C9            -3.1947    -6.8769    -0.7635 C.ar    
  10 C10           -3.4051    -8.2555    -0.8005 C.ar    
  11 C11           -5.1994    -8.0227     0.7828 C.ar    
  12 C12           -4.4130    -8.8244    -0.0187 C.ar    
  13 C13           -5.8547    -5.7880     1.6968 C.3     
  14 C14           -1.0176    -2.3704     0.1138 C.ar    
  15 C15           -2.5336    -4.1988    -0.0243 C.2     
  16 C16           -0.7741    -1.0659    -0.2914 C.ar    
  17 C17            0.0356    -3.1740     0.5321 C.ar    
  18 C18            0.5206    -0.5705    -0.2830 C.ar    
  19 C19            1.3243    -2.6769     0.5391 C.ar    
  20 C20            1.5695    -1.3795     0.1304 C.ar    
  21 C21           -2.5650    -9.1107    -1.6640 C.2     
  22 C22            2.1204     1.1504    -0.6453 C.3     
  23 H23           -2.4171    -6.4311    -1.3660 H       
  24 H24           -5.9808    -8.4639     1.3838 H       
  25 H25           -4.5348    -4.0973     0.1991 H       
  26 H26           -4.5792    -9.8912    -0.0444 H       
  27 H27           -6.7273    -5.4564     1.1339 H       
  28 H28           -6.1791    -6.3593     2.5665 H       
  29 H29           -5.2827    -4.9201     2.0249 H       
  30 H30           -3.0766    -2.2697     0.1960 H       
  31 H31           -1.5916    -0.4377    -0.6131 H       
  32 H32           -0.1533    -4.1881     0.8519 H       
  33 H33            2.1417    -3.3030     0.8648 H       
  34 H34            2.5782    -0.9937     0.1366 H       
  35 H35            2.4987     1.0840     0.3747 H       
  36 H36            2.7249     0.5213    -1.2987 H       
  37 H37            2.1734     2.1845    -0.9859 H       
  38 H38           -2.1956   -10.9598    -2.2780 H       
@<TRIPOS>BOND
   1    1   18 1
   2    1   22 1
   3    2   15 2
   4    3   21 1
   5    3   38 1
   6    4   21 2
   7    5    7 1
   8    5   15 am
   9    5   25 1
  10    6   14 1
  11    6   15 am
  12    6   30 1
  13    7    8 ar
  14    7    9 ar
  15    8   11 ar
  16    8   13 1
  17    9   10 ar
  18    9   23 1
  19   10   12 ar
  20   10   21 1
  21   11   12 ar
  22   11   24 1
  23   12   26 1
  24   13   27 1
  25   13   28 1
  26   13   29 1
  27   14   16 ar
  28   14   17 ar
  29   16   18 ar
  30   16   31 1
  31   17   19 ar
  32   17   32 1
  33   18   20 ar
  34   19   20 ar
  35   19   33 1
  36   20   34 1
  37   22   35 1
  38   22   36 1
  39   22   37 1

#	End of record

#	Name: 6463145
#	Creating user name:	landrgr1
#	Creation time:	28. 01. 2015 13:52

#	Modifying user name:	landrgr1
#	Modification time:	28. 01. 2015 13:52

#	Program:	corina 3.48 0006  22.01.2010

@<TRIPOS>MOLECULE
6463145
  48   50    0    0    0
SMALL
NO_CHARGES


@<TRIPOS>ATOM
   1 Cl1           -1.0818     4.3649     0.4056 Cl      
   2 S2            -0.1307     1.4428    -0.1820 S.o2    
   3 O3             0.0968     0.0401    -0.1805 O.2     
   4 O4             0.9190     2.4004    -0.1613 O.2     
   5 O5            -6.5835    -0.4943     5.1609 O.3     
   6 O6            -1.9685    -0.9972     4.2781 O.2     
   7 N7            -1.0343     1.7685    -1.5310 N.am    
   8 N8            -3.9153    -0.0167     4.7037 N.am    
   9 C9            -0.9636     3.1162    -2.1895 C.3     
  10 C10           -1.8927     0.7660    -2.0926 C.3     
  11 C11           -0.2681     2.9475    -3.4648 C.3     
  12 C12           -1.2458    -0.1766    -3.1379 C.3     
  13 C13           -0.9315     1.9548    -4.4141 C.3     
  14 C14           -0.3224     0.6301    -4.0838 C.3     
  15 C15           -1.1433     1.7841     1.2190 C.ar    
  16 C16           -1.5148     0.7605     2.0654 C.ar    
  17 C17           -4.8856     1.0476     4.4019 C.3     
  18 C18           -4.2908    -1.0328     5.6997 C.3     
  19 C19           -2.3170     1.0325     3.1749 C.ar    
  20 C20           -1.5598     3.0805     1.4712 C.ar    
  21 C21           -2.7182    -0.0599     4.0860 C.2     
  22 C22           -6.2389     0.3957     4.0965 C.3     
  23 C23           -5.6732    -1.5834     5.3311 C.3     
  24 C24           -2.7386     2.3407     3.4208 C.ar    
  25 C25           -2.3560     3.3566     2.5708 C.ar    
  26 H26           -1.9703     3.4958    -2.3644 H       
  27 H27           -0.4108     3.8093    -1.5554 H       
  28 H28           -2.2797     0.1546    -1.2775 H       
  29 H29           -2.7375     1.2677    -2.5645 H       
  30 H30           -0.2133     3.9168    -3.9602 H       
  31 H31            0.7477     2.6077    -3.2629 H       
  32 H32           -0.6596    -0.9383    -2.6238 H       
  33 H33           -2.0288    -0.6595    -3.7225 H       
  34 H34           -2.0084     1.9350    -4.2469 H       
  35 H35           -0.7140     2.2194    -5.4489 H       
  36 H36            0.6410     0.7852    -3.5981 H       
  37 H37           -0.1723     0.0667    -5.0047 H       
  38 H38           -1.1860    -0.2495     1.8700 H       
  39 H39           -4.9830     1.7103     5.2618 H       
  40 H40           -4.5484     1.6168     3.5356 H       
  41 H41           -3.5598    -1.8413     5.6928 H       
  42 H42           -4.3283    -0.5796     6.6903 H       
  43 H43           -6.1718    -0.1624     3.1626 H       
  44 H44           -7.0029     1.1679     4.0059 H       
  45 H45           -6.0300    -2.2350     6.1287 H       
  46 H46           -5.6040    -2.1487     4.4017 H       
  47 H47           -3.3594     2.5571     4.2777 H       
  48 H48           -2.6778     4.3696     2.7624 H       
@<TRIPOS>BOND
   1    1   20 1
   2    2    3 2
   3    2    4 2
   4    2    7 am
   5    2   15 1
   6    5   22 1
   7    5   23 1
   8    6   21 2
   9    7    9 1
  10    7   10 1
  11    8   17 1
  12    8   18 1
  13    8   21 am
  14    9   11 1
  15    9   26 1
  16    9   27 1
  17   10   12 1
  18   10   28 1
  19   10   29 1
  20   11   13 1
  21   11   30 1
  22   11   31 1
  23   12   14 1
  24   12   32 1
  25   12   33 1
  26   13   14 1
  27   13   34 1
  28   13   35 1
  29   14   36 1
  30   14   37 1
  31   15   16 ar
  32   15   20 ar
  33   16   19 ar
  34   16   38 1
  35   17   22 1
  36   17   39 1
  37   17   40 1
  38   18   23 1
  39   18   41 1
  40   18   42 1
  41   19   21 1
  42   19   24 ar
  43   20   25 ar
  44   22   43 1
  45   22   44 1
  46   23   45 1
  47   23   46 1
  48   24   25 ar
  49   24   47 1
  50   25   48 1

#	End of record

#	Name: 6420073
#	Creating user name:	landrgr1
#	Creation time:	28. 01. 2015 13:52

#	Modifying user name:	landrgr1
#	Modification time:	28. 01. 2015 13:52

#	Program:	corina 3.48 0006  22.01.2010

@<TRIPOS>MOLECULE
6420073
  71   75    0    0    0
SMALL
NO_CHARGES


@<TRIPOS>ATOM
   1 O1             0.0003     1.4362    -0.5658 O.3     
   2 O2            -4.4403    -0.5158    -3.2533 O.3     
   3 O3             1.3380    -0.8981    -1.8802 O.2     
   4 O4             1.8356    -0.8408     0.5506 O.2     
   5 O5             0.8936    -1.9562    -3.9401 O.3     
   6 O6            -1.3792     0.3642     3.5404 O.2     
   7 O7             0.0722    -3.5570    -5.7859 O.3     
   8 O8             2.3959    -0.9460     2.9326 O.3     
   9 N9            -1.8097     2.0329     0.9483 N.3     
  10 N10            0.6278    -0.6737     4.4327 N.pl3   
  11 N11            1.9654     0.3485     6.1371 N.3     
  12 C12           -1.6204    -0.2334     0.0406 C.3     
  13 C13           -2.2861    -0.9189    -2.2431 C.3     
  14 C14           -2.5169     0.1198    -1.1457 C.3     
  15 C15           -0.1661     0.0332    -0.3512 C.3     
  16 C16           -1.9636     0.6074     1.2683 C.3     
  17 C17           -3.0350    -0.5236    -3.5124 C.3     
  18 C18           -0.8102    -1.1301    -2.5058 C.2     
  19 C19            0.1696    -0.6887    -1.6167 C.2     
  20 C20            0.7306    -0.3915     0.7783 C.2     
  21 C21           -2.7314    -1.5157    -4.6051 C.ar    
  22 C22           -1.0213     0.2348     2.3872 C.2     
  23 C23           -0.4137    -1.7213    -3.6941 C.2     
  24 C24            0.2703    -0.2615     2.1102 C.2     
  25 C25           -1.4528    -2.0770    -4.6889 C.ar    
  26 C26           -2.5900     0.8723    -3.9532 C.3     
  27 C27           -3.6985    -1.8727    -5.5173 C.ar    
  28 C28           -3.0236     2.5641     0.3142 C.3     
  29 C29           -1.4602     2.8067     2.1470 C.3     
  30 C30           -1.1639    -3.0046    -5.6983 C.ar    
  31 C31            1.1106    -0.6322     3.1712 C.2     
  32 C32           -3.4091    -2.7893    -6.5159 C.ar    
  33 C33           -2.1515    -3.3536    -6.6076 C.ar    
  34 C34            1.5334    -0.9295     5.5555 C.3     
  35 C35            2.3550     0.1814     7.5493 C.3     
  36 C36            3.1154     0.9068     5.3944 C.3     
  37 C37            3.8076     0.6842     7.6854 C.3     
  38 C38            3.9648     1.6324     6.4675 C.3     
  39 H39           -1.7418    -1.2888     0.2844 H       
  40 H40           -2.6781    -1.8755    -1.8976 H       
  41 H41           -3.5617     0.1015    -0.8356 H       
  42 H42           -2.2605     1.1116    -1.5181 H       
  43 H43           -2.9918     0.4095     1.5714 H       
  44 H44           -2.8098     1.5901    -3.1630 H       
  45 H45           -1.5181     0.8664    -4.1509 H       
  46 H46           -3.1251     1.1548    -4.8599 H       
  47 H47            0.9130     1.7013    -0.7440 H       
  48 H48           -4.9799    -0.2726    -4.0181 H       
  49 H49           -4.6850    -1.4378    -5.4547 H       
  50 H50           -3.8688     2.4474     0.9926 H       
  51 H51           -2.8826     3.6210     0.0878 H       
  52 H52           -3.2203     2.0180    -0.6085 H       
  53 H53           -0.4764     2.5008     2.5029 H       
  54 H54           -1.4439     3.8687     1.9019 H       
  55 H55           -2.2010     2.6249     2.9256 H       
  56 H56            1.2521    -1.4478    -4.6805 H       
  57 H57           -4.1730    -3.0648    -7.2279 H       
  58 H58           -1.9369    -4.0680    -7.3886 H       
  59 H59           -0.3183    -0.5341     4.5948 H       
  60 H60            1.0154    -1.5170     6.3135 H       
  61 H61            2.4047    -1.4805     5.2014 H       
  62 H62            1.6972     0.7712     8.1877 H       
  63 H63            2.2993    -0.8710     7.8273 H       
  64 H64            3.6925     0.1066     4.9309 H       
  65 H65            2.7723     1.6145     4.6397 H       
  66 H66            3.9404     1.2308     8.6190 H       
  67 H67            4.5106    -0.1463     7.6205 H       
  68 H68            5.0079     1.7017     6.1587 H       
  69 H69            3.5575     2.6195     6.6861 H       
  70 H70            2.5839    -1.8577     2.6709 H       
  71 H71            0.1743    -4.3748    -5.2802 H       
@<TRIPOS>BOND
   1    1   15 1
   2    1   47 1
   3    2   17 1
   4    2   48 1
   5    3   19 2
   6    4   20 2
   7    5   23 1
   8    5   56 1
   9    6   22 2
  10    7   30 1
  11    7   71 1
  12    8   31 1
  13    8   70 1
  14    9   16 1
  15    9   28 1
  16    9   29 1
  17   10   31 1
  18   10   34 1
  19   10   59 1
  20   11   34 1
  21   11   35 1
  22   11   36 1
  23   12   14 1
  24   12   15 1
  25   12   16 1
  26   12   39 1
  27   13   14 1
  28   13   17 1
  29   13   18 1
  30   13   40 1
  31   14   41 1
  32   14   42 1
  33   15   19 1
  34   15   20 1
  35   16   22 1
  36   16   43 1
  37   17   21 1
  38   17   26 1
  39   18   19 1
  40   18   23 2
  41   20   24 1
  42   21   25 ar
  43   21   27 ar
  44   22   24 1
  45   23   25 1
  46   24   31 2
  47   25   30 ar
  48   26   44 1
  49   26   45 1
  50   26   46 1
  51   27   32 ar
  52   27   49 1
  53   28   50 1
  54   28   51 1
  55   28   52 1
  56   29   53 1
  57   29   54 1
  58   29   55 1
  59   30   33 ar
  60   32   33 ar
  61   32   57 1
  62   33   58 1
  63   34   60 1
  64   34   61 1
  65   35   37 1
  66   35   62 1
  67   35   63 1
  68   36   38 1
  69   36   64 1
  70   36   65 1
  71   37   38 1
  72   37   66 1
  73   37   67 1
  74   38   68 1
  75   38   69 1

#	End of record

#	Name: 6418532
#	Creating user name:	landrgr1
#	Creation time:	28. 01. 2015 13:52

#	Modifying user name:	landrgr1
#	Modification time:	28. 01. 2015 13:52

#	Program:	corina 3.48 0006  22.01.2010

@<TRIPOS>MOLECULE
6418532
  56   60    0    0    0
SMALL
NO_CHARGES


@<TRIPOS>ATOM
   1 O1             1.6062     0.4140     1.5058 O.3     
   2 O2             0.1784    -0.6968    -4.7583 O.2     
   3 O3             0.0794    -0.0915    -2.7398 O.2     
   4 N4             2.0248    -0.2503    -1.1907 N.3     
   5 N5             0.7277    -0.4889    -3.6913 N.pl3   
   6 N6             4.9669    -1.0027    -6.8549 N.ar    
   7 N7             7.2509    -2.4595    -9.1448 N.pl3   
   8 N8             5.6443    -1.2817    -7.9046 N.ar    
   9 C9             2.4096     1.0715    -0.6750 C.3     
  10 C10            2.1370    -1.2723    -0.1399 C.3     
  11 C11            2.7894    -0.5938    -2.3057 C.ar    
  12 C12            1.5081     1.4340     0.5081 C.3     
  13 C13            1.2382    -0.8863     1.0379 C.3     
  14 C14            2.1832    -0.7192    -3.5508 C.ar    
  15 C15            4.1576    -0.8047    -2.1710 C.ar    
  16 C16            4.3083    -1.2754    -4.5210 C.ar    
  17 C17            2.9362    -1.0580    -4.6542 C.ar    
  18 C18            4.9151    -1.1436    -3.2706 C.ar    
  19 C19            5.1195    -1.6393    -5.7040 C.ar    
  20 C20            6.1102    -2.7113    -5.6335 C.ar    
  21 C21            6.8453    -2.9977    -6.8122 C.ar    
  22 C22            6.5645    -2.2261    -7.9635 C.ar    
  23 C23            6.3517    -3.4455    -4.4709 C.ar    
  24 C24            7.8049    -4.0143    -6.7948 C.ar    
  25 C25            7.2956    -4.4318    -4.4869 C.ar    
  26 C26            8.0178    -4.7141    -5.6427 C.ar    
  27 C27            6.9820    -1.6821   -10.2743 C.ar    
  28 C28            8.0060    -1.3550   -11.1543 C.ar    
  29 C29            5.6889    -1.2393   -10.5230 C.ar    
  30 C30            6.4492    -0.1435   -12.5116 C.ar    
  31 C31            7.7366    -0.5870   -12.2699 C.ar    
  32 C32            5.4265    -0.4716   -11.6405 C.ar    
  33 C33            6.1592     0.6949   -13.7298 C.3     
  34 H34            3.4486     1.0457    -0.3464 H       
  35 H35            2.2946     1.8169    -1.4620 H       
  36 H36            1.8229    -2.2379    -0.5362 H       
  37 H37            3.1716    -1.3356     0.1973 H       
  38 H38            0.4754     1.5125     0.1681 H       
  39 H39            1.8266     2.3874     0.9297 H       
  40 H40            1.3614    -1.6111     1.8426 H       
  41 H41            0.1977    -0.8753     0.7133 H       
  42 H42            4.6265    -0.7023    -1.2035 H       
  43 H43            2.4649    -1.1555    -5.6210 H       
  44 H44            5.9774    -1.3076    -3.1654 H       
  45 H45            5.7977    -3.2352    -3.5680 H       
  46 H46            8.3720    -4.2439    -7.6848 H       
  47 H47            7.9180    -3.1624    -9.1874 H       
  48 H48            7.4847    -5.0016    -3.5891 H       
  49 H49            8.7587    -5.4998    -5.6276 H       
  50 H50            9.0117    -1.7007   -10.9660 H       
  51 H51            4.8896    -1.4955    -9.8433 H       
  52 H52            8.5323    -0.3320   -12.9542 H       
  53 H53            4.4214    -0.1274   -11.8346 H       
  54 H54            5.8971     0.0446   -14.5644 H       
  55 H55            5.3279     1.3676   -13.5184 H       
  56 H56            7.0426     1.2789   -13.9877 H       
@<TRIPOS>BOND
   1    1   12 1
   2    1   13 1
   3    2    5 2
   4    3    5 2
   5    4    9 1
   6    4   10 1
   7    4   11 1
   8    5   14 1
   9    6    8 ar
  10    6   19 ar
  11    7   22 1
  12    7   27 1
  13    7   47 1
  14    8   22 ar
  15    9   12 1
  16    9   34 1
  17    9   35 1
  18   10   13 1
  19   10   36 1
  20   10   37 1
  21   11   14 ar
  22   11   15 ar
  23   12   38 1
  24   12   39 1
  25   13   40 1
  26   13   41 1
  27   14   17 ar
  28   15   18 ar
  29   15   42 1
  30   16   17 ar
  31   16   18 ar
  32   16   19 1
  33   17   43 1
  34   18   44 1
  35   19   20 ar
  36   20   21 ar
  37   20   23 ar
  38   21   22 ar
  39   21   24 ar
  40   23   25 ar
  41   23   45 1
  42   24   26 ar
  43   24   46 1
  44   25   26 ar
  45   25   48 1
  46   26   49 1
  47   27   28 ar
  48   27   29 ar
  49   28   31 ar
  50   28   50 1
  51   29   32 ar
  52   29   51 1
  53   30   31 ar
  54   30   32 ar
  55   30   33 1
  56   31   52 1
  57   32   53 1
  58   33   54 1
  59   33   55 1
  60   33   56 1

#	End of record

#	Name: 6413486
#	Creating user name:	landrgr1
#	Creation time:	28. 01. 2015 13:52

#	Modifying user name:	landrgr1
#	Modification time:	28. 01. 2015 13:52

#	Program:	corina 3.48 0006  22.01.2010

@<TRIPOS>MOLECULE
6413486
  29   30    0    0    0
SMALL
NO_CHARGES


@<TRIPOS>ATOM
   1 F1             2.4246     1.5879     3.4757 F       
   2 F2             1.2833     0.0082     2.2836 F       
   3 F3             0.2972     2.0132     2.7596 F       
   4 N4            -0.0176     1.4498     0.0100 N.3     
   5 N5             1.7861     2.4776    -1.1115 N.ar    
   6 N6             3.2718     2.4512     1.1183 N.ar    
   7 N7             3.7419     2.9411     0.0250 N.ar    
   8 N8             0.0021    -0.0041     0.0020 N.3     
   9 C9             1.2690     1.9639     0.0005 C.ar    
  10 C10            2.0503     1.9535     1.1605 C.ar    
  11 C11            3.0220     2.9635    -1.0904 C.ar    
  12 C12            3.6048     3.5380    -2.3272 C.ar    
  13 C13            1.5041     1.3804     2.4428 C.3     
  14 C14            4.9007     4.0509    -2.3171 C.ar    
  15 C15            2.8607     3.5619    -3.5055 C.ar    
  16 C16           -0.8015     1.9718    -1.1174 C.3     
  17 C17            5.4379     4.5843    -3.4710 C.ar    
  18 C18            3.4081     4.0977    -4.6535 C.ar    
  19 C19            4.6927     4.6105    -4.6361 C.ar    
  20 H20            5.4833     4.0312    -1.4079 H       
  21 H21            1.8577     3.1614    -3.5202 H       
  22 H22           -1.8266     1.6080    -1.0465 H       
  23 H23           -0.7998     3.0614    -1.0874 H       
  24 H24           -0.3598     1.6335    -2.0546 H       
  25 H25            6.4419     4.9823    -3.4643 H       
  26 H26            2.8324     4.1167    -5.5671 H       
  27 H27            5.1171     5.0289    -5.5368 H       
  28 H28           -0.9349    -0.3784     0.0090 H       
  29 H29            0.5256    -0.3543    -0.7863 H       
@<TRIPOS>BOND
   1    1   13 1
   2    2   13 1
   3    3   13 1
   4    4    8 1
   5    4    9 1
   6    4   16 1
   7    5    9 ar
   8    5   11 ar
   9    6    7 ar
  10    6   10 ar
  11    7   11 ar
  12    8   28 1
  13    8   29 1
  14    9   10 ar
  15   10   13 1
  16   11   12 1
  17   12   14 ar
  18   12   15 ar
  19   14   17 ar
  20   14   20 1
  21   15   18 ar
  22   15   21 1
  23   16   22 1
  24   16   23 1
  25   16   24 1
  26   17   19 ar
  27   17   25 1
  28   18   19 ar
  29   18   26 1
  30   19   27 1

#	End of record

#	Name: 6413024
#	Creating user name:	landrgr1
#	Creation time:	28. 01. 2015 13:52

#	Modifying user name:	landrgr1
#	Modification time:	28. 01. 2015 13:52

#	Program:	corina 3.48 0006  22.01.2010

@<TRIPOS>MOLECULE
6413024
  37   39    0    0    0
SMALL
NO_CHARGES


@<TRIPOS>ATOM
   1 N1            -0.0200     1.3794    -0.0230 N.pl3   
   2 N2             1.1457    -0.6668    -0.1277 N.ar    
   3 N3            -1.1335    -2.0684     0.1201 N.ar    
   4 N4            -0.0013    -2.6699     0.0076 N.ar    
   5 N5             3.5531    -2.0669    -0.3668 N.ar    
   6 C6            -1.1939    -0.7414     0.1155 C.ar    
   7 C7             0.0004    -0.0041    -0.0143 C.ar    
   8 C8            -2.4963    -0.0472     0.2449 C.ar    
   9 C9             1.1356    -1.9954    -0.1158 C.ar    
  10 C10           -2.7962     1.0376    -0.5786 C.ar    
  11 C11           -3.4294    -0.4794     1.1868 C.ar    
  12 C12            1.2375     2.1303    -0.0563 C.3     
  13 C13            2.4140    -2.7364    -0.2428 C.ar    
  14 C14           -4.0111     1.6798    -0.4537 C.ar    
  15 C15           -4.6409     0.1709     1.3023 C.ar    
  16 C16           -4.9307     1.2497     0.4861 C.ar    
  17 C17            2.4091    -4.1292    -0.2314 C.ar    
  18 C18            0.9404     3.6077    -0.0594 C.2     
  19 C19            3.6107    -4.8074    -0.3515 C.ar    
  20 C20            4.7777    -4.0688    -0.4789 C.ar    
  21 C21            4.7089    -2.6865    -0.4825 C.ar    
  22 C22            1.4699     4.3843     0.8532 C.2     
  23 H23           -0.8669     1.8520    -0.0111 H       
  24 H24           -2.0790     1.3745    -1.3124 H       
  25 H25           -3.2045    -1.3217     1.8243 H       
  26 H26            1.8328     1.8813     0.8222 H       
  27 H27            1.7927     1.8695    -0.9573 H       
  28 H28           -4.2444     2.5202    -1.0906 H       
  29 H29           -5.3644    -0.1629     2.0314 H       
  30 H30           -5.8802     1.7556     0.5802 H       
  31 H31            1.4813    -4.6726    -0.1301 H       
  32 H32            0.2909     4.0264    -0.8139 H       
  33 H33            3.6384    -5.8870    -0.3456 H       
  34 H34            5.7308    -4.5675    -0.5748 H       
  35 H35            5.6157    -2.1083    -0.5816 H       
  36 H36            1.2570     5.4431     0.8510 H       
  37 H37            2.1195     3.9656     1.6077 H       
@<TRIPOS>BOND
   1    1    7 1
   2    1   12 1
   3    1   23 1
   4    2    7 ar
   5    2    9 ar
   6    3    4 ar
   7    3    6 ar
   8    4    9 ar
   9    5   13 ar
  10    5   21 ar
  11    6    7 ar
  12    6    8 1
  13    8   10 ar
  14    8   11 ar
  15    9   13 1
  16   10   14 ar
  17   10   24 1
  18   11   15 ar
  19   11   25 1
  20   12   18 1
  21   12   26 1
  22   12   27 1
  23   13   17 ar
  24   14   16 ar
  25   14   28 1
  26   15   16 ar
  27   15   29 1
  28   16   30 1
  29   17   19 ar
  30   17   31 1
  31   18   22 2
  32   18   32 1
  33   19   20 ar
  34   19   33 1
  35   20   21 ar
  36   20   34 1
  37   21   35 1
  38   22   36 1
  39   22   37 1

#	End of record

#	Name: 6413016
#	Creating user name:	landrgr1
#	Creation time:	28. 01. 2015 13:52

#	Modifying user name:	landrgr1
#	Modification time:	28. 01. 2015 13:52

#	Program:	corina 3.48 0006  22.01.2010

@<TRIPOS>MOLECULE
6413016
  36   37    0    0    0
SMALL
NO_CHARGES


@<TRIPOS>ATOM
   1 S1            -0.0218     1.7577     0.0117 S.3     
   2 F2           -10.7019    -0.7789    -2.2625 F       
   3 O3            -5.9654    -2.2132     0.0490 O.3     
   4 N4            -4.7169    -2.8809     0.0330 N.pl3   
   5 N5            -1.1424    -0.6743     0.0093 N.ar    
   6 N6             1.2295    -1.9287    -0.0205 N.ar    
   7 N7             1.1658    -0.6437    -0.0130 N.ar    
   8 C8            -8.3621    -2.2768     0.0724 C.ar    
   9 C9            -7.0936    -3.0902     0.0555 C.3     
  10 C10           -8.9553    -1.8976    -1.1165 C.ar    
  11 C11           -8.9351    -1.9151     1.2777 C.ar    
  12 C12           -1.1165    -2.0106     0.0019 C.ar    
  13 C13            0.1302    -2.6565    -0.0135 C.ar    
  14 C14          -10.1212    -1.1506    -1.1006 C.ar    
  15 C15          -10.0990    -1.1698     1.2948 C.ar    
  16 C16          -10.6911    -0.7845     0.1068 C.ar    
  17 C17           -2.3652    -2.7866     0.0102 C.2     
  18 C18           -3.5476    -2.1542     0.0253 C.2     
  19 C19            0.2105    -4.1613    -0.0228 C.3     
  20 C20            0.0021    -0.0041     0.0020 C.ar    
  21 C21            1.7562     2.0963    -0.0035 C.3     
  22 H22           -7.0740    -3.7141    -0.8381 H       
  23 H23           -7.0563    -3.7236     0.9417 H       
  24 H24           -8.5097    -2.1835    -2.0578 H       
  25 H25           -8.4729    -2.2154     2.2065 H       
  26 H26          -10.5460    -0.8885     2.2368 H       
  27 H27          -11.6002    -0.2016     0.1204 H       
  28 H28           -2.3302    -3.8660     0.0040 H       
  29 H29           -3.5826    -1.0748     0.0314 H       
  30 H30            0.2403    -4.5300     1.0025 H       
  31 H31           -0.6640    -4.5687    -0.5301 H       
  32 H32            1.1133    -4.4737    -0.5476 H       
  33 H33           -4.6854    -3.8504     0.0275 H       
  34 H34            1.9209     3.1737     0.0008 H       
  35 H35            2.2177     1.6547     0.8798 H       
  36 H36            2.2007     1.6643    -0.9001 H       
@<TRIPOS>BOND
   1    1   20 1
   2    1   21 1
   3    2   14 1
   4    3    4 1
   5    3    9 1
   6    4   18 1
   7    4   33 1
   8    5   12 ar
   9    5   20 ar
  10    6    7 ar
  11    6   13 ar
  12    7   20 ar
  13    8    9 1
  14    8   10 ar
  15    8   11 ar
  16    9   22 1
  17    9   23 1
  18   10   14 ar
  19   10   24 1
  20   11   15 ar
  21   11   25 1
  22   12   13 ar
  23   12   17 1
  24   13   19 1
  25   14   16 ar
  26   15   16 ar
  27   15   26 1
  28   16   27 1
  29   17   18 2
  30   17   28 1
  31   18   29 1
  32   19   30 1
  33   19   31 1
  34   19   32 1
  35   21   34 1
  36   21   35 1
  37   21   36 1

#	End of record

#	Name: 6411226
#	Creating user name:	landrgr1
#	Creation time:	28. 01. 2015 13:52

#	Modifying user name:	landrgr1
#	Modification time:	28. 01. 2015 13:52

#	Program:	corina 3.48 0006  22.01.2010

@<TRIPOS>MOLECULE
6411226
  40   42    0    0    0
SMALL
NO_CHARGES


@<TRIPOS>ATOM
   1 F1            -0.5432    -7.9575    -0.2168 F       
   2 O2            -0.1013     1.2024     0.8655 O.3     
   3 O3            -2.0425     0.3623    -0.8958 O.3     
   4 N4             2.4468    -2.7548    -0.0361 N.pl3   
   5 N5             1.1464    -4.7139    -0.1166 N.ar    
   6 N6             0.9988    -5.9889    -0.1181 N.ar    
   7 C7             1.3118    -1.9647    -0.2519 C.ar    
   8 C8             1.1668    -0.7593     0.4217 C.ar    
   9 C9             0.0432     0.0216     0.2066 C.ar    
  10 C10            2.3386    -4.1411    -0.0334 C.ar    
  11 C11            0.3331    -2.3839    -1.1436 C.ar    
  12 C12           -0.9378    -0.4036    -0.6839 C.ar    
  13 C13            2.0304    -6.8183    -0.0363 C.ar    
  14 C14            1.8081    -8.2843    -0.0423 C.ar    
  15 C15           -0.7876    -1.6045    -1.3584 C.ar    
  16 C16            3.4858    -4.9317     0.0566 C.ar    
  17 C17            3.3293    -6.3058     0.0553 C.ar    
  18 C18            0.5125    -8.7965    -0.1340 C.ar    
  19 C19            2.8917    -9.1565     0.0379 C.ar    
  20 C20            0.3129   -10.1643    -0.1395 C.ar    
  21 C21            2.6791   -10.5203     0.0314 C.ar    
  22 C22            1.3934   -11.0233    -0.0539 C.ar    
  23 C23            0.9447     1.5758     1.7648 C.3     
  24 C24           -3.0089    -0.1356    -1.8233 C.3     
  25 H25            1.9292    -0.4309     1.1125 H       
  26 H26            3.3088    -2.3353     0.1115 H       
  27 H27            0.4486    -3.3195    -1.6706 H       
  28 H28           -1.5475    -1.9320    -2.0524 H       
  29 H29            4.4661    -4.4836     0.1249 H       
  30 H30            4.1835    -6.9632     0.1232 H       
  31 H31            3.8964    -8.7661     0.1045 H       
  32 H32           -0.6884   -10.5628    -0.2104 H       
  33 H33            3.5189   -11.1966     0.0935 H       
  34 H34            1.2330   -12.0913    -0.0582 H       
  35 H35            1.8829     1.6594     1.2162 H       
  36 H36            0.7048     2.5354     2.2227 H       
  37 H37            1.0441     0.8174     2.5413 H       
  38 H38           -3.3826    -1.0990    -1.4765 H       
  39 H39           -3.8367     0.5694    -1.8989 H       
  40 H40           -2.5445    -0.2570    -2.8019 H       
@<TRIPOS>BOND
   1    1   18 1
   2    2    9 1
   3    2   23 1
   4    3   12 1
   5    3   24 1
   6    4    7 1
   7    4   10 1
   8    4   26 1
   9    5    6 ar
  10    5   10 ar
  11    6   13 ar
  12    7    8 ar
  13    7   11 ar
  14    8    9 ar
  15    8   25 1
  16    9   12 ar
  17   10   16 ar
  18   11   15 ar
  19   11   27 1
  20   12   15 ar
  21   13   14 1
  22   13   17 ar
  23   14   18 ar
  24   14   19 ar
  25   15   28 1
  26   16   17 ar
  27   16   29 1
  28   17   30 1
  29   18   20 ar
  30   19   21 ar
  31   19   31 1
  32   20   22 ar
  33   20   32 1
  34   21   22 ar
  35   21   33 1
  36   22   34 1
  37   23   35 1
  38   23   36 1
  39   23   37 1
  40   24   38 1
  41   24   39 1
  42   24   40 1

#	End of record

#	Name: 6411150
#	Creating user name:	landrgr1
#	Creation time:	28. 01. 2015 13:52

#	Modifying user name:	landrgr1
#	Modification time:	28. 01. 2015 13:52

#	Program:	corina 3.48 0006  22.01.2010

@<TRIPOS>MOLECULE
6411150
  53   57    0    0    0
SMALL
NO_CHARGES


@<TRIPOS>ATOM
   1 S1             0.1561     1.5260    -0.0370 S.3     
   2 O2             1.0273     4.1765     0.1279 O.2     
   3 N3            -0.7909    -0.9787    -0.1858 N.ar    
   4 N4             1.6596    -2.0485    -0.4129 N.ar    
   5 N5             1.5090    -0.7717    -0.3012 N.ar    
   6 N6             3.2396     4.0757    -0.0070 N.am    
   7 C7            -0.8284    -4.5519     0.3849 C.3     
   8 C8            -1.6694    -3.4332    -0.3341 C.3     
   9 C9             0.4370    -4.3508    -0.5281 C.3     
  10 C10           -1.6147    -3.9486    -1.8074 C.3     
  11 C11           -0.2008    -4.5642    -1.9377 C.3     
  12 C12           -0.6649    -2.2825    -0.2987 C.ar    
  13 C13            0.6077    -2.8359    -0.4162 C.ar    
  14 C14           -0.5474    -4.2170     1.8511 C.3     
  15 C15           -1.4485    -5.9411     0.2224 C.3     
  16 C16           -3.0626    -3.1532     0.2330 C.3     
  17 C17            0.3049    -0.2233    -0.1874 C.ar    
  18 C18            1.9027     1.9965    -0.0990 C.3     
  19 C19            2.0239     3.4943     0.0155 C.2     
  20 C20            3.3480     5.4676     0.0038 C.ar    
  21 C21            4.3815     6.1069    -0.7140 C.ar    
  22 C22            4.4721     7.5205    -0.6887 C.ar    
  23 C23            2.4436     6.2298     0.7106 C.ar    
  24 C24            5.3204     5.3691    -1.4511 C.ar    
  25 C25            3.5329     8.2608     0.0500 C.ar    
  26 C26            2.5426     7.6182     0.7280 C.ar    
  27 C27            5.5011     8.1571    -1.4034 C.ar    
  28 C28            6.3048     6.0194    -2.1316 C.ar    
  29 C29            6.3942     7.4094    -2.1081 C.ar    
  30 H30            1.3081    -4.9634    -0.2960 H       
  31 H31           -2.3788    -4.7077    -1.9751 H       
  32 H32           -1.7371    -3.1212    -2.5063 H       
  33 H33            0.3750    -4.0404    -2.7007 H       
  34 H34           -0.2669    -5.6271    -2.1701 H       
  35 H35           -1.4908    -4.1083     2.3862 H       
  36 H36            0.0356    -5.0201     2.3019 H       
  37 H37            0.0131    -3.2840     1.9097 H       
  38 H38           -1.5065    -6.1915    -0.8369 H       
  39 H39           -0.8305    -6.6773     0.7364 H       
  40 H40           -2.4504    -5.9443     0.6518 H       
  41 H41           -2.9750    -2.8369     1.2724 H       
  42 H42           -3.5394    -2.3637    -0.3480 H       
  43 H43           -3.6659    -4.0593     0.1785 H       
  44 H44            2.4356     1.5248     0.7266 H       
  45 H45            2.3341     1.6683    -1.0446 H       
  46 H46            4.0392     3.5271    -0.0307 H       
  47 H47            1.6485     5.7445     1.2571 H       
  48 H48            5.2629     4.2910    -1.4785 H       
  49 H49            3.5939     9.3387     0.0756 H       
  50 H50            1.8221     8.1951     1.2887 H       
  51 H51            5.5828     9.2339    -1.3939 H       
  52 H52            7.0264     5.4492    -2.6978 H       
  53 H53            7.1839     7.9011    -2.6567 H       
@<TRIPOS>BOND
   1    1   17 1
   2    1   18 1
   3    2   19 2
   4    3   12 ar
   5    3   17 ar
   6    4    5 ar
   7    4   13 ar
   8    5   17 ar
   9    6   19 am
  10    6   20 1
  11    6   46 1
  12    7    8 1
  13    7    9 1
  14    7   14 1
  15    7   15 1
  16    8   10 1
  17    8   12 1
  18    8   16 1
  19    9   11 1
  20    9   13 1
  21    9   30 1
  22   10   11 1
  23   10   31 1
  24   10   32 1
  25   11   33 1
  26   11   34 1
  27   12   13 ar
  28   14   35 1
  29   14   36 1
  30   14   37 1
  31   15   38 1
  32   15   39 1
  33   15   40 1
  34   16   41 1
  35   16   42 1
  36   16   43 1
  37   18   19 1
  38   18   44 1
  39   18   45 1
  40   20   21 ar
  41   20   23 ar
  42   21   22 ar
  43   21   24 ar
  44   22   25 ar
  45   22   27 ar
  46   23   26 ar
  47   23   47 1
  48   24   28 ar
  49   24   48 1
  50   25   26 ar
  51   25   49 1
  52   26   50 1
  53   27   29 ar
  54   27   51 1
  55   28   29 ar
  56   28   52 1
  57   29   53 1

#	End of record

#	Name: 6407879
#	Creating user name:	landrgr1
#	Creation time:	28. 01. 2015 13:52

#	Modifying user name:	landrgr1
#	Modification time:	28. 01. 2015 13:52

#	Program:	corina 3.48 0006  22.01.2010

@<TRIPOS>MOLECULE
6407879
  50   54    0    0    0
SMALL
NO_CHARGES


@<TRIPOS>ATOM
   1 S1             0.3648     2.0278     0.1045 S.o2    
   2 S2            -3.7877     6.2140     7.1299 S.3     
   3 O3             1.1692     3.1881    -0.0558 O.2     
   4 O4            -0.4861     1.5248    -0.9164 O.2     
   5 O5            -2.5466     5.1742     4.8517 O.2     
   6 N6            -6.0196     8.2654    11.2989 N.pl3   
   7 N7            -4.9297     7.3160     9.2832 N.ar    
   8 N8            -6.0482     4.9914    10.0553 N.ar    
   9 N9            -3.0865     3.0225     4.8207 N.am    
  10 N10            1.3964     0.7951     0.5030 N.am    
  11 N11           -5.3249     5.0543     8.9902 N.ar    
  12 N12            1.7290    -1.5019     0.7761 N.ar    
  13 N13           -0.4014    -0.6230     0.9704 N.ar    
  14 C14           -6.9975     6.3587    12.0242 C.ar    
  15 C15           -6.8196     7.7248    12.2928 C.ar    
  16 C16           -6.2498     6.0779    10.7864 C.ar    
  17 C17           -5.6680     7.2991    10.3891 C.ar    
  18 C18           -7.7685     5.5746    12.8785 C.ar    
  19 C19           -7.4201     8.2810    13.4168 C.ar    
  20 C20           -0.6609     2.3232     1.5064 C.ar    
  21 C21           -8.3550     6.1443    13.9885 C.ar    
  22 C22           -8.1807     7.4931    14.2549 C.ar    
  23 C23           -2.2719     2.7879     3.7074 C.ar    
  24 C24           -0.2688     3.2364     2.4679 C.ar    
  25 C25           -1.8589     1.6456     1.6399 C.ar    
  26 C26           -1.0707     3.4706     3.5677 C.ar    
  27 C27           -2.6653     1.8753     2.7373 C.ar    
  28 C28           -4.7656     6.1938     8.5955 C.ar    
  29 C29           -3.9167     4.4758     6.6420 C.3     
  30 C30           -3.1339     4.2505     5.3741 C.2     
  31 C31            0.8971    -0.4709     0.7552 C.ar    
  32 C32            1.2844    -2.7247     1.0141 C.ar    
  33 C33           -0.9108    -1.8191     1.2143 C.ar    
  34 C34           -0.0686    -2.9196     1.2430 C.ar    
  35 H35           -5.7496     9.1958    11.2506 H       
  36 H36           -7.9056     4.5232    12.6727 H       
  37 H37           -7.2905     9.3310    13.6339 H       
  38 H38           -8.9533     5.5376    14.6522 H       
  39 H39           -8.6443     7.9309    15.1266 H       
  40 H40            0.6656     3.7668     2.3589 H       
  41 H41           -2.1644     0.9363     0.8850 H       
  42 H42           -0.7620     4.1810     4.3204 H       
  43 H43           -3.5987     1.3425     2.8432 H       
  44 H44           -3.6170     2.3014     5.1941 H       
  45 H45            2.3505     0.9603     0.5596 H       
  46 H46           -3.5139     3.8451     7.4346 H       
  47 H47           -4.9633     4.2226     6.4727 H       
  48 H48            1.9674    -3.5612     1.0295 H       
  49 H49           -1.9700    -1.9367     1.3893 H       
  50 H50           -0.4583    -3.9075     1.4395 H       
@<TRIPOS>BOND
   1    1    3 2
   2    1    4 2
   3    1   10 am
   4    1   20 1
   5    2   28 1
   6    2   29 1
   7    5   30 2
   8    6   15 1
   9    6   17 1
  10    6   35 1
  11    7   17 ar
  12    7   28 ar
  13    8   11 ar
  14    8   16 ar
  15    9   23 1
  16    9   30 am
  17    9   44 1
  18   10   31 1
  19   10   45 1
  20   11   28 ar
  21   12   31 ar
  22   12   32 ar
  23   13   31 ar
  24   13   33 ar
  25   14   15 ar
  26   14   16 1
  27   14   18 ar
  28   15   19 ar
  29   16   17 ar
  30   18   21 ar
  31   18   36 1
  32   19   22 ar
  33   19   37 1
  34   20   24 ar
  35   20   25 ar
  36   21   22 ar
  37   21   38 1
  38   22   39 1
  39   23   26 ar
  40   23   27 ar
  41   24   26 ar
  42   24   40 1
  43   25   27 ar
  44   25   41 1
  45   26   42 1
  46   27   43 1
  47   29   30 1
  48   29   46 1
  49   29   47 1
  50   32   34 ar
  51   32   48 1
  52   33   34 ar
  53   33   49 1
  54   34   50 1

#	End of record

#	Name: 6406851
#	Creating user name:	landrgr1
#	Creation time:	28. 01. 2015 13:52

#	Modifying user name:	landrgr1
#	Modification time:	28. 01. 2015 13:52

#	Program:	corina 3.48 0006  22.01.2010

@<TRIPOS>MOLECULE
6406851
  38   41    0    0    0
SMALL
NO_CHARGES


@<TRIPOS>ATOM
   1 S1            -0.0218     1.7577     0.0117 S.3     
   2 S2             4.9766     6.2272    -0.0120 S.3     
   3 O3             1.0374     4.3441     0.0155 O.2     
   4 N4            -2.1122    -2.9540     0.0068 N.pl3   
   5 N5            -1.1450    -0.6701     0.0094 N.ar    
   6 N6             1.2361    -1.9273    -0.0206 N.ar    
   7 N7             1.1694    -0.6400    -0.0130 N.ar    
   8 N8             3.2396     4.0757    -0.0070 N.am    
   9 N9             2.8834     7.5677     0.0165 N.2     
  10 N10            2.5210     6.3583     0.0129 N.2     
  11 C11           -0.1592    -4.0953    -0.0179 C.ar    
  12 C12           -1.5568    -4.2234    -0.0050 C.ar    
  13 C13            0.1255    -2.6500    -0.0134 C.ar    
  14 C14           -1.1252    -1.9996     0.0021 C.ar    
  15 C15            0.6452    -5.2319    -0.0315 C.ar    
  16 C16           -2.1237    -5.4931    -0.0059 C.ar    
  17 C17            0.0643    -6.4823    -0.0312 C.ar    
  18 C18           -1.3156    -6.6104    -0.0189 C.ar    
  19 C19            0.0021    -0.0041     0.0020 C.ar    
  20 C20            4.8259     9.1418     0.0072 C.3     
  21 C21            1.7562     2.0963    -0.0035 C.3     
  22 C22            4.1593     7.7903     0.0053 C.2     
  23 C23            1.9840     3.5860     0.0024 C.2     
  24 C24            3.4498     5.4505    -0.0016 C.2     
  25 C25            5.0651     9.5905     1.4502 C.3     
  26 H26           -3.0639    -2.7662     0.0133 H       
  27 H27            1.7208    -5.1343    -0.0411 H       
  28 H28           -3.1979    -5.6043     0.0039 H       
  29 H29            0.6867    -7.3648    -0.0417 H       
  30 H30           -1.7619    -7.5939    -0.0192 H       
  31 H31            5.7798     9.0772    -0.5161 H       
  32 H32            4.1835     9.8644    -0.4962 H       
  33 H33            2.2177     1.6547     0.8798 H       
  34 H34            2.2007     1.6643    -0.9001 H       
  35 H35            3.9966     3.4694    -0.0175 H       
  36 H36            4.1112     9.6551     1.9736 H       
  37 H37            5.7075     8.8679     1.9536 H       
  38 H38            5.5473    10.5680     1.4516 H       
@<TRIPOS>BOND
   1    1   19 1
   2    1   21 1
   3    2   22 1
   4    2   24 1
   5    3   23 2
   6    4   12 1
   7    4   14 1
   8    4   26 1
   9    5   14 ar
  10    5   19 ar
  11    6    7 ar
  12    6   13 ar
  13    7   19 ar
  14    8   23 am
  15    8   24 1
  16    8   35 1
  17    9   10 1
  18    9   22 2
  19   10   24 2
  20   11   12 ar
  21   11   13 1
  22   11   15 ar
  23   12   16 ar
  24   13   14 ar
  25   15   17 ar
  26   15   27 1
  27   16   18 ar
  28   16   28 1
  29   17   18 ar
  30   17   29 1
  31   18   30 1
  32   20   22 1
  33   20   25 1
  34   20   31 1
  35   20   32 1
  36   21   23 1
  37   21   33 1
  38   21   34 1
  39   25   36 1
  40   25   37 1
  41   25   38 1

#	End of record

#	Name: 6405717
#	Creating user name:	landrgr1
#	Creation time:	28. 01. 2015 13:52

#	Modifying user name:	landrgr1
#	Modification time:	28. 01. 2015 13:52

#	Program:	corina 3.48 0006  22.01.2010

@<TRIPOS>MOLECULE
6405717
  41   43    0    0    0
SMALL
NO_CHARGES


@<TRIPOS>ATOM
   1 Br1           -9.1127    -0.6224     0.6593 Br      
   2 Cl2            2.2550    -9.9855    -0.6177 Cl      
   3 O3            -0.0260     1.4281    -0.1034 O.3     
   4 N4            -2.7903    -2.5701    -0.0183 N.pl3   
   5 N5            -2.0181    -4.7950    -0.1199 N.ar    
   6 N6            -4.5151    -5.7558     0.1329 N.ar    
   7 N7            -3.5124    -6.5547     0.0206 N.ar    
   8 C8            -1.4168    -2.0616    -0.0544 C.3     
   9 C9            -1.4394    -0.5318    -0.0603 C.3     
  10 C10           -3.0230    -3.9340    -0.0068 C.ar    
  11 C11           -4.3317    -4.4403     0.1256 C.ar    
  12 C12           -5.4850    -3.5194     0.2543 C.ar    
  13 C13           -0.0050    -0.0007    -0.0979 C.3     
  14 C14           -2.2710    -6.0997    -0.1053 C.ar    
  15 C15           -1.1506    -7.0616    -0.2319 C.ar    
  16 C16           -5.5822    -2.3998    -0.5715 C.ar    
  17 C17           -6.4804    -3.7720     1.1979 C.ar    
  18 C18           -1.4012    -8.4332    -0.2182 C.ar    
  19 C19            0.1571    -6.5981    -0.3710 C.ar    
  20 C20           -6.6584    -1.5455    -0.4473 C.ar    
  21 C21           -7.5522    -2.9110     1.3134 C.ar    
  22 C22           -7.6407    -1.7980     0.4949 C.ar    
  23 C23           -0.3547    -9.3243    -0.3368 C.ar    
  24 C24            1.1963    -7.4977    -0.4890 C.ar    
  25 C25            0.9426    -8.8588    -0.4694 C.ar    
  26 H26           -0.8759    -2.4136     0.8240 H       
  27 H27           -0.9198    -2.4211    -0.9554 H       
  28 H28           -1.9803    -0.1798    -0.9387 H       
  29 H29           -1.9364    -0.1723     0.8407 H       
  30 H30           -3.5365    -1.9506    -0.0025 H       
  31 H31            0.4920    -0.3603    -0.9989 H       
  32 H32            0.5360    -0.3528     0.7805 H       
  33 H33           -4.8162    -2.2017    -1.3067 H       
  34 H34           -6.4126    -4.6401     1.8367 H       
  35 H35           -2.4126    -8.7973    -0.1144 H       
  36 H36            0.3560    -5.5367    -0.3867 H       
  37 H37           -6.7344    -0.6780    -1.0860 H       
  38 H38           -8.3236    -3.1056     2.0438 H       
  39 H39           -0.5476   -10.3869    -0.3259 H       
  40 H40            2.2095    -7.1397    -0.5971 H       
  41 H41            0.8512     1.8343    -0.1268 H       
@<TRIPOS>BOND
   1    1   22 1
   2    2   25 1
   3    3   13 1
   4    3   41 1
   5    4    8 1
   6    4   10 1
   7    4   30 1
   8    5   10 ar
   9    5   14 ar
  10    6    7 ar
  11    6   11 ar
  12    7   14 ar
  13    8    9 1
  14    8   26 1
  15    8   27 1
  16    9   13 1
  17    9   28 1
  18    9   29 1
  19   10   11 ar
  20   11   12 1
  21   12   16 ar
  22   12   17 ar
  23   13   31 1
  24   13   32 1
  25   14   15 1
  26   15   18 ar
  27   15   19 ar
  28   16   20 ar
  29   16   33 1
  30   17   21 ar
  31   17   34 1
  32   18   23 ar
  33   18   35 1
  34   19   24 ar
  35   19   36 1
  36   20   22 ar
  37   20   37 1
  38   21   22 ar
  39   21   38 1
  40   23   25 ar
  41   23   39 1
  42   24   25 ar
  43   24   40 1

#	End of record

#	Name: 6404641
#	Creating user name:	landrgr1
#	Creation time:	28. 01. 2015 13:52

#	Modifying user name:	landrgr1
#	Modification time:	28. 01. 2015 13:52

#	Program:	corina 3.48 0006  22.01.2010

@<TRIPOS>MOLECULE
6404641
  36   38    0    0    0
SMALL
NO_CHARGES


@<TRIPOS>ATOM
   1 Cl1           -5.3000     5.2502     0.0710 Cl      
   2 S2            -0.0532     1.8061    -0.1766 S.3     
   3 O3            -4.7137    -0.5825     0.0436 O.3     
   4 O4            -4.1960    -4.7365     0.3337 O.3     
   5 O5            -5.5371    -2.9702     0.2225 O.2     
   6 N6            -2.4024    -0.2992    -0.0010 N.ar    
   7 N7            -2.0097    -2.9561     0.1846 N.ar    
   8 N8            -1.0085    -2.1500     0.1166 N.ar    
   9 C9            -3.4620    -1.0954     0.0670 C.ar    
  10 C10           -3.2564    -2.4864     0.1644 C.ar    
  11 C11           -1.1818    -0.8294     0.0243 C.ar    
  12 C12           -0.0060     0.0529    -0.0510 C.2     
  13 C13           -4.8493     0.7699     0.0501 C.ar    
  14 C14            1.2941    -0.3587    -0.0350 C.2     
  15 C15           -4.6217     1.4964    -1.1098 C.ar    
  16 C16           -5.2210     1.4252     1.2151 C.ar    
  17 C17           -4.4037    -3.4080     0.2417 C.2     
  18 C18           -5.3726    -5.5843     0.4061 C.3     
  19 C19            2.1952     0.6794    -0.1191 C.2     
  20 C20           -4.7605     2.8707    -1.1013 C.ar    
  21 C21           -5.3588     2.7997     1.2195 C.ar    
  22 C22           -5.1263     3.5229     0.0629 C.ar    
  23 C23            1.6504     1.8970    -0.2010 C.2     
  24 C24           -4.9407    -7.0487     0.5054 C.3     
  25 H25            1.5877    -1.3955     0.0368 H       
  26 H26           -4.3359     0.9877    -2.0186 H       
  27 H27           -5.4029     0.8610     2.1179 H       
  28 H28           -5.9588    -5.3179     1.2857 H       
  29 H29           -5.9773    -5.4437    -0.4898 H       
  30 H30            3.2636     0.5212    -0.1186 H       
  31 H31           -4.5831     3.4366    -2.0040 H       
  32 H32           -5.6481     3.3101     2.1262 H       
  33 H33            2.2133     2.8159    -0.2735 H       
  34 H34           -5.8240    -7.6851     0.5598 H       
  35 H35           -4.3546    -7.3151    -0.3741 H       
  36 H36           -4.3360    -7.1892     1.4013 H       
@<TRIPOS>BOND
   1    1   22 1
   2    2   12 1
   3    2   23 1
   4    3    9 1
   5    3   13 1
   6    4   17 1
   7    4   18 1
   8    5   17 2
   9    6    9 ar
  10    6   11 ar
  11    7    8 ar
  12    7   10 ar
  13    8   11 ar
  14    9   10 ar
  15   10   17 1
  16   11   12 1
  17   12   14 2
  18   13   15 ar
  19   13   16 ar
  20   14   19 1
  21   14   25 1
  22   15   20 ar
  23   15   26 1
  24   16   21 ar
  25   16   27 1
  26   18   24 1
  27   18   28 1
  28   18   29 1
  29   19   23 2
  30   19   30 1
  31   20   22 ar
  32   20   31 1
  33   21   22 ar
  34   21   32 1
  35   23   33 1
  36   24   34 1
  37   24   35 1
  38   24   36 1

#	End of record

#	Name: 6404525
#	Creating user name:	landrgr1
#	Creation time:	28. 01. 2015 13:52

#	Modifying user name:	landrgr1
#	Modification time:	28. 01. 2015 13:52

#	Program:	corina 3.48 0006  22.01.2010

@<TRIPOS>MOLECULE
6404525
  36   38    0    0    0
SMALL
NO_CHARGES


@<TRIPOS>ATOM
   1 O1            -0.0164     1.3554     0.0095 O.3     
   2 O2             0.1510    -4.1297     0.0334 O.3     
   3 N3             3.4093     1.9580    -0.4690 N.ar    
   4 N4             2.2784     1.3659    -0.3435 N.ar    
   5 N5            -0.9680     4.7652     0.4408 N.1     
   6 C6             4.8729     3.9034    -0.5340 C.ar    
   7 C7             3.5378     3.2753    -0.3795 C.ar    
   8 C8             2.4151     4.0700    -0.1402 C.ar    
   9 C9             0.0248    -0.0036     0.0156 C.ar    
  10 C10            1.1796     3.4288    -0.0026 C.ar    
  11 C11            1.1538     2.0266    -0.1150 C.ar    
  12 C12            5.9946     3.1119    -0.7733 C.ar    
  13 C13            5.0090     5.2875    -0.4460 C.ar    
  14 C14            0.5558    -0.6766     1.1063 C.ar    
  15 C15           -0.4694    -0.7174    -1.0665 C.ar    
  16 C16            0.1090    -2.7706     0.0277 C.ar    
  17 C17            0.5976    -2.0571     1.1123 C.ar    
  18 C18           -0.4275    -2.0979    -1.0602 C.ar    
  19 C19            7.2343     3.7016    -0.9162 C.ar    
  20 C20            6.2535     5.8665    -0.5904 C.ar    
  21 C21            7.3645     5.0755    -0.8218 C.ar    
  22 C22           -0.0180     4.1740     0.2446 C.1     
  23 C23           -0.3694    -4.7996    -1.1165 C.3     
  24 H24            2.4979     5.1440    -0.0634 H       
  25 H25            5.8942     2.0391    -0.8466 H       
  26 H26            4.1423     5.9060    -0.2654 H       
  27 H27            0.9368    -0.1211     1.9504 H       
  28 H28           -0.8872    -0.1936    -1.9135 H       
  29 H29            1.0109    -2.5811     1.9614 H       
  30 H30           -0.8123    -2.6536    -1.9026 H       
  31 H31            8.1043     3.0892    -1.1017 H       
  32 H32            6.3602     6.9390    -0.5224 H       
  33 H33            8.3365     5.5327    -0.9335 H       
  34 H34           -0.2754    -5.8773    -0.9827 H       
  35 H35           -1.4202    -4.5396    -1.2439 H       
  36 H36            0.1905    -4.4930    -2.0001 H       
@<TRIPOS>BOND
   1    1    9 1
   2    1   11 1
   3    2   16 1
   4    2   23 1
   5    3    4 ar
   6    3    7 ar
   7    4   11 ar
   8    5   22 3
   9    6    7 1
  10    6   12 ar
  11    6   13 ar
  12    7    8 ar
  13    8   10 ar
  14    8   24 1
  15    9   14 ar
  16    9   15 ar
  17   10   11 ar
  18   10   22 1
  19   12   19 ar
  20   12   25 1
  21   13   20 ar
  22   13   26 1
  23   14   17 ar
  24   14   27 1
  25   15   18 ar
  26   15   28 1
  27   16   17 ar
  28   16   18 ar
  29   17   29 1
  30   18   30 1
  31   19   21 ar
  32   19   31 1
  33   20   21 ar
  34   20   32 1
  35   21   33 1
  36   23   34 1
  37   23   35 1
  38   23   36 1

#	End of record

#	Name: 6404496
#	Creating user name:	landrgr1
#	Creation time:	28. 01. 2015 13:52

#	Modifying user name:	landrgr1
#	Modification time:	28. 01. 2015 13:52

#	Program:	corina 3.48 0006  22.01.2010

@<TRIPOS>MOLECULE
6404496
  32   34    0    0    0
SMALL
NO_CHARGES


@<TRIPOS>ATOM
   1 S1            -0.0218     1.7577     0.0117 S.3     
   2 F2             5.7508     2.8811    -0.0229 F       
   3 N3             1.2322    -1.9305    -0.1314 N.ar    
   4 N4             1.1619    -0.6498    -0.1176 N.ar    
   5 N5            -3.4550     0.4565     0.3386 N.1     
   6 C6             0.3056    -4.1809    -0.0526 C.ar    
   7 C7             0.1596    -2.7050    -0.0308 C.ar    
   8 C8            -1.1066    -2.1303     0.0960 C.ar    
   9 C9             1.5683    -4.7571    -0.1786 C.ar    
  10 C10           -0.8189    -4.9967     0.0587 C.ar    
  11 C11           -1.1912    -0.7346     0.1118 C.ar    
  12 C12            0.0091    -0.0039    -0.0014 C.ar    
  13 C13            1.7077     2.0942     0.0013 C.ar    
  14 C14            1.6983    -6.1309    -0.1978 C.ar    
  15 C15           -0.6771    -6.3694     0.0383 C.ar    
  16 C16            0.5782    -6.9357    -0.0922 C.ar    
  17 C17            2.3622     2.3364    -1.1999 C.ar    
  18 C18            2.4180     2.1232     1.1949 C.ar    
  19 C19            3.7177     2.6003    -1.2055 C.ar    
  20 C20            3.7734     2.3876     1.1843 C.ar    
  21 C21            4.4247     2.6231    -0.0149 C.ar    
  22 C22           -2.4536    -0.0704     0.2383 C.1     
  23 H23           -1.9917    -2.7436     0.1788 H       
  24 H24            2.4435    -4.1297    -0.2614 H       
  25 H25           -1.7994    -4.5556     0.1610 H       
  26 H26            2.6763    -6.5785    -0.2957 H       
  27 H27           -1.5477    -7.0025     0.1248 H       
  28 H28            0.6845    -8.0104    -0.1081 H       
  29 H29            1.8114     2.3180    -2.1287 H       
  30 H30            1.9105     1.9396     2.1304 H       
  31 H31            4.2268     2.7887    -2.1391 H       
  32 H32            4.3259     2.4103     2.1120 H       
@<TRIPOS>BOND
   1    1   12 1
   2    1   13 1
   3    2   21 1
   4    3    4 ar
   5    3    7 ar
   6    4   12 ar
   7    5   22 3
   8    6    7 1
   9    6    9 ar
  10    6   10 ar
  11    7    8 ar
  12    8   11 ar
  13    8   23 1
  14    9   14 ar
  15    9   24 1
  16   10   15 ar
  17   10   25 1
  18   11   12 ar
  19   11   22 1
  20   13   17 ar
  21   13   18 ar
  22   14   16 ar
  23   14   26 1
  24   15   16 ar
  25   15   27 1
  26   16   28 1
  27   17   19 ar
  28   17   29 1
  29   18   20 ar
  30   18   30 1
  31   19   21 ar
  32   19   31 1
  33   20   21 ar
  34   20   32 1

#	End of record

#	Name: 6401684
#	Creating user name:	landrgr1
#	Creation time:	28. 01. 2015 13:52

#	Modifying user name:	landrgr1
#	Modification time:	28. 01. 2015 13:52

#	Program:	corina 3.48 0006  22.01.2010

@<TRIPOS>MOLECULE
6401684
  28   31    0    0    0
SMALL
NO_CHARGES


@<TRIPOS>ATOM
   1 O1            -0.0144     1.2105     0.0087 O.3     
   2 O2            -1.1393    -0.8420     0.0077 O.3     
   3 N3             0.0021    -0.0041     0.0020 N.2     
   4 N4             5.4414    -0.5201    -0.0542 N.ar    
   5 N5             1.0680     1.7613     0.0013 N.2     
   6 N6             6.1642     0.5400    -0.0559 N.ar    
   7 C7             3.4700     0.7937    -0.0272 C.ar    
   8 C8             2.0091     0.8575    -0.0125 C.ar    
   9 C9             4.1086    -0.4690    -0.0404 C.ar    
  10 C10            1.2473    -0.4137    -0.0121 C.ar    
  11 C11            4.2637     1.9392    -0.0292 C.ar    
  12 C12            5.6482     1.7660    -0.0442 C.ar    
  13 C13            3.3178    -1.6971    -0.0380 C.ar    
  14 C14            1.9702    -1.6763    -0.0253 C.ar    
  15 C15            6.5437     2.9478    -0.0465 C.ar    
  16 C16            7.9272     2.7773    -0.0610 C.ar    
  17 C17            6.0053     4.2336    -0.0400 C.ar    
  18 C18            8.7557     3.8809    -0.0631 C.ar    
  19 C19            6.8436     5.3298    -0.0422 C.ar    
  20 C20            8.2158     5.1545    -0.0503 C.ar    
  21 H21            3.8232     2.9252    -0.0199 H       
  22 H22            3.8275    -2.6492    -0.0470 H       
  23 H23            1.4214    -2.6064    -0.0247 H       
  24 H24            8.3498     1.7835    -0.0702 H       
  25 H25            4.9342     4.3716    -0.0336 H       
  26 H26            9.8277     3.7501    -0.0743 H       
  27 H27            6.4276     6.3265    -0.0375 H       
  28 H28            8.8681     6.0153    -0.0513 H       
@<TRIPOS>BOND
   1    1    3 1
   2    1    5 1
   3    2    3 1
   4    3   10 2
   5    4    6 ar
   6    4    9 ar
   7    5    8 2
   8    6   12 ar
   9    7    8 ar
  10    7    9 ar
  11    7   11 ar
  12    8   10 ar
  13    9   13 ar
  14   10   14 ar
  15   11   12 ar
  16   11   21 1
  17   12   15 1
  18   13   14 ar
  19   13   22 1
  20   14   23 1
  21   15   16 ar
  22   15   17 ar
  23   16   18 ar
  24   16   24 1
  25   17   19 ar
  26   17   25 1
  27   18   20 ar
  28   18   26 1
  29   19   20 ar
  30   19   27 1
  31   20   28 1

#	End of record

#	Name: 6401647
#	Creating user name:	landrgr1
#	Creation time:	28. 01. 2015 13:52

#	Modifying user name:	landrgr1
#	Modification time:	28. 01. 2015 13:52

#	Program:	corina 3.48 0006  22.01.2010

@<TRIPOS>MOLECULE
6401647
  24   25    0    0    0
SMALL
NO_CHARGES


@<TRIPOS>ATOM
   1 O1            -0.0162     1.3432     0.0094 O.3     
   2 O2             1.0624    -0.5972    -0.0113 O.2     
   3 N3            -2.7297    -2.3748     0.0164 N.2     
   4 N4            -2.4936    -0.2646     0.0240 N.2     
   5 N5            -3.3313    -1.2393     0.0274 N.pl3   
   6 C6            -0.3553    -3.1949    -0.0103 C.ar    
   7 C7            -1.4264    -2.1689     0.0050 C.2     
   8 C8            -1.2653    -0.7590     0.0101 C.2     
   9 C9            -0.5266    -4.3950     0.6771 C.ar    
  10 C10            0.8236    -2.9648    -0.7170 C.ar    
  11 C11            0.4733    -5.3462     0.6594 C.ar    
  12 C12            1.8168    -3.9230    -0.7278 C.ar    
  13 C13            1.6439    -5.1098    -0.0385 C.ar    
  14 C14            0.0021    -0.0041     0.0020 C.2     
  15 C15            1.2684     2.0199     0.0008 C.3     
  16 H16           -1.4399    -4.5803     1.2230 H       
  17 H17            0.9596    -2.0385    -1.2554 H       
  18 H18            0.3417    -6.2765     1.1918 H       
  19 H19            2.7308    -3.7458    -1.2750 H       
  20 H20            2.4241    -5.8566    -0.0491 H       
  21 H21           -4.2953    -1.1315     0.0367 H       
  22 H22            1.8378     1.7299     0.8838 H       
  23 H23            1.8208     1.7394    -0.8960 H       
  24 H24            1.1110     3.0985     0.0081 H       
@<TRIPOS>BOND
   1    1   14 1
   2    1   15 1
   3    2   14 2
   4    3    5 1
   5    3    7 2
   6    4    5 1
   7    4    8 2
   8    5   21 1
   9    6    7 1
  10    6    9 ar
  11    6   10 ar
  12    7    8 1
  13    8   14 1
  14    9   11 ar
  15    9   16 1
  16   10   12 ar
  17   10   17 1
  18   11   13 ar
  19   11   18 1
  20   12   13 ar
  21   12   19 1
  22   13   20 1
  23   15   22 1
  24   15   23 1
  25   15   24 1

#	End of record

#	Name: 6400941
#	Creating user name:	landrgr1
#	Creation time:	28. 01. 2015 13:52

#	Modifying user name:	landrgr1
#	Modification time:	28. 01. 2015 13:52

#	Program:	corina 3.48 0006  22.01.2010

@<TRIPOS>MOLECULE
6400941
  47   49    0    0    0
SMALL
NO_CHARGES


@<TRIPOS>ATOM
   1 O1            -0.0173     1.4248     0.0099 O.3     
   2 N2            -5.1525    -4.0434     0.0362 N.pl3   
   3 N3            -2.7870    -2.5706     0.0149 N.pl3   
   4 N4            -5.2315    -3.7949     2.3868 N.ar    
   5 N5            -4.7598    -3.3620     3.5001 N.ar    
   6 C6            -4.6518    -3.5481    -1.1779 C.ar    
   7 C7            -3.4671    -2.8108    -1.1899 C.ar    
   8 C8            -3.4328    -2.8303     1.2201 C.ar    
   9 C9            -6.2125    -5.0547     0.0435 C.3     
  10 C10           -4.6244    -3.5652     1.2366 C.ar    
  11 C11           -1.4126    -2.0635     0.0045 C.3     
  12 C12           -5.5859    -6.4504     0.0308 C.3     
  13 C13           -1.4333    -0.5336     0.0129 C.3     
  14 C14           -5.3270    -3.7868    -2.3628 C.ar    
  15 C15           -2.9701    -2.3209    -2.3851 C.ar    
  16 C16           -2.9315    -2.3624     2.4267 C.ar    
  17 C17           -6.6929    -7.5065     0.0384 C.3     
  18 C18           -4.8235    -3.2945    -3.5548 C.ar    
  19 C19           -3.6510    -2.5639    -3.5661 C.ar    
  20 C20           -3.6449    -2.6627     3.5786 C.ar    
  21 C21            0.0021    -0.0041     0.0020 C.3     
  22 C22           -6.0662    -8.9023     0.0257 C.3     
  23 C23           -3.1481    -2.1853     4.9188 C.3     
  24 H24           -6.8204    -4.9374     0.9406 H       
  25 H25           -6.8397    -4.9299    -0.8392 H       
  26 H26           -0.8854    -2.4246     0.8875 H       
  27 H27           -0.9024    -2.4150    -0.8923 H       
  28 H28           -4.9780    -6.5676    -0.8663 H       
  29 H29           -4.9587    -6.5751     0.9135 H       
  30 H30           -1.9605    -0.1726    -0.8702 H       
  31 H31           -1.9435    -0.1821     0.9097 H       
  32 H32           -6.2442    -4.3569    -2.3573 H       
  33 H33           -2.0533    -1.7502    -2.3966 H       
  34 H34           -2.0222    -1.7810     2.4679 H       
  35 H35           -7.3007    -7.3893     0.9355 H       
  36 H36           -7.3200    -7.3818    -0.8443 H       
  37 H37           -5.3503    -3.4806    -4.4791 H       
  38 H38           -3.2638    -2.1817    -4.4991 H       
  39 H39            0.5123    -0.3556    -0.8948 H       
  40 H40            0.5293    -0.3651     0.8851 H       
  41 H41           -5.4583    -9.0195    -0.8714 H       
  42 H42           -5.4390    -9.0270     0.9084 H       
  43 H43           -6.8549    -9.6547     0.0311 H       
  44 H44           -2.4911    -2.9392     5.3524 H       
  45 H45           -2.5974    -1.2533     4.7912 H       
  46 H46           -3.9966    -2.0179     5.5822 H       
  47 H47            0.8606     1.8301     0.0037 H       
@<TRIPOS>BOND
   1    1   21 1
   2    1   47 1
   3    2    6 1
   4    2    9 1
   5    2   10 1
   6    3    7 1
   7    3    8 1
   8    3   11 1
   9    4    5 ar
  10    4   10 ar
  11    5   20 ar
  12    6    7 ar
  13    6   14 ar
  14    7   15 ar
  15    8   10 ar
  16    8   16 ar
  17    9   12 1
  18    9   24 1
  19    9   25 1
  20   11   13 1
  21   11   26 1
  22   11   27 1
  23   12   17 1
  24   12   28 1
  25   12   29 1
  26   13   21 1
  27   13   30 1
  28   13   31 1
  29   14   18 ar
  30   14   32 1
  31   15   19 ar
  32   15   33 1
  33   16   20 ar
  34   16   34 1
  35   17   22 1
  36   17   35 1
  37   17   36 1
  38   18   19 ar
  39   18   37 1
  40   19   38 1
  41   20   23 1
  42   21   39 1
  43   21   40 1
  44   22   41 1
  45   22   42 1
  46   22   43 1
  47   23   44 1
  48   23   45 1
  49   23   46 1

#	End of record

#	Name: 6398940
#	Creating user name:	landrgr1
#	Creation time:	28. 01. 2015 13:52

#	Modifying user name:	landrgr1
#	Modification time:	28. 01. 2015 13:52

#	Program:	corina 3.48 0006  22.01.2010

@<TRIPOS>MOLECULE
6398940
  36   39    0    0    0
SMALL
NO_CHARGES


@<TRIPOS>ATOM
   1 O1            -0.3665     0.9310    -0.6461 O.3     
   2 O2            -6.0383     2.9051     1.1826 O.2     
   3 N3            -3.5062    -1.7867     0.8810 N.pl3   
   4 N4            -1.8975    -2.4273    -0.4644 N.2     
   5 N5            -2.6865     0.4706     1.4336 N.pl3   
   6 C6            -2.6060    -0.7577     0.7928 C.2     
   7 C7            -1.5998    -1.1812    -0.0597 C.2     
   8 C8            -3.0389    -2.8081     0.0901 C.2     
   9 C9            -0.4103    -0.4014    -0.4536 C.2     
  10 C10           -4.6805    -1.9240     1.5669 C.2     
  11 C11           -3.7774    -4.0055    -0.0061 C.2     
  12 C12           -5.3958    -3.0650     1.4833 C.2     
  13 C13           -4.9416    -4.1295     0.6866 C.2     
  14 C14           -3.7921     1.2188     1.3122 C.2     
  15 C15            0.8332    -0.9035    -0.6855 C.2     
  16 C16           -3.9287     2.3924     2.0620 C.2     
  17 C17            1.6536     0.1887    -1.0328 C.2     
  18 C18            0.8800     1.2910    -0.9965 C.2     
  19 C19           -5.1324     3.2235     1.9415 C.2     
  20 C20           -2.9148     2.7995     2.9548 C.2     
  21 C21           -5.2224     4.3920     2.7152 C.2     
  22 C22           -3.0658     3.9435     3.6751 C.2     
  23 C23           -4.2050     4.7326     3.5549 C.2     
  24 H24           -5.0389    -1.1117     2.1819 H       
  25 H25           -1.9428     0.7878     1.9694 H       
  26 H26           -3.4222    -4.8166    -0.6244 H       
  27 H27           -6.3218    -3.1603     2.0308 H       
  28 H28           -5.5168    -5.0412     0.6211 H       
  29 H29           -4.5775     0.9158     0.6356 H       
  30 H30            1.1334    -1.9386    -0.6161 H       
  31 H31            2.7040     0.1493    -1.2809 H       
  32 H32            1.2073     2.2972    -1.2132 H       
  33 H33           -2.0208     2.2038     3.0663 H       
  34 H34           -6.0976     5.0207     2.6443 H       
  35 H35           -2.2836     4.2460     4.3556 H       
  36 H36           -4.2867     5.6340     4.1440 H       
@<TRIPOS>BOND
   1    1    9 1
   2    1   18 1
   3    2   19 2
   4    3    6 1
   5    3    8 1
   6    3   10 1
   7    4    7 1
   8    4    8 2
   9    5    6 1
  10    5   14 1
  11    5   25 1
  12    6    7 2
  13    7    9 1
  14    8   11 1
  15    9   15 2
  16   10   12 2
  17   10   24 1
  18   11   13 2
  19   11   26 1
  20   12   13 1
  21   12   27 1
  22   13   28 1
  23   14   16 2
  24   14   29 1
  25   15   17 1
  26   15   30 1
  27   16   19 1
  28   16   20 1
  29   17   18 2
  30   17   31 1
  31   18   32 1
  32   19   21 1
  33   20   22 2
  34   20   33 1
  35   21   23 2
  36   21   34 1
  37   22   23 1
  38   22   35 1
  39   23   36 1

#	End of record

#	Name: 6398937
#	Creating user name:	landrgr1
#	Creation time:	28. 01. 2015 13:52

#	Modifying user name:	landrgr1
#	Modification time:	28. 01. 2015 13:52

#	Program:	corina 3.48 0006  22.01.2010

@<TRIPOS>MOLECULE
6398937
  55   54    0    0    0
SMALL
NO_CHARGES


@<TRIPOS>ATOM
   1 O1             4.8615     5.7257    -0.0136 O.2     
   2 N2            -0.0178     1.4648     0.0101 N.3     
   3 N3            -2.7907    -2.5720     0.0149 N.3     
   4 N4             2.6465     5.5700     0.0067 N.am    
   5 N5             3.6159    10.5061     0.0248 N.ar    
   6 C6            -1.4333    -0.5336     0.0129 C.3     
   7 C7             0.0021    -0.0041     0.0020 C.3     
   8 C8            -1.4126    -2.0635     0.0045 C.3     
   9 C9             1.3463     2.0098    -0.0000 C.3     
  10 C10            1.2847     3.5386     0.0088 C.3     
  11 C11            2.7054     4.1063    -0.0017 C.3     
  12 C12           -2.8195    -4.0200    -0.2308 C.3     
  13 C13           -3.4653    -2.2385     1.2765 C.3     
  14 C14            3.7856     6.2904    -0.0003 C.2     
  15 C15            3.7260     7.7707     0.0082 C.ar    
  16 C16            4.8955     8.5369     0.0012 C.ar    
  17 C17            2.4987     8.4402     0.0240 C.ar    
  18 C18            4.7937     9.9146     0.0100 C.ar    
  19 C19            2.4894     9.8217     0.0319 C.ar    
  20 H20           -1.9435    -0.1821     0.9097 H       
  21 H21           -1.9605    -0.1726    -0.8702 H       
  22 H22            0.5123    -0.3556    -0.8948 H       
  23 H23            0.5293    -0.3651     0.8851 H       
  24 H24           -0.8854    -2.4246     0.8875 H       
  25 H25           -0.9024    -2.4150    -0.8923 H       
  26 H26            1.8828     1.6627     0.8830 H       
  27 H27            1.8658     1.6723    -0.8968 H       
  28 H28            0.7482     3.8857    -0.8743 H       
  29 H29            0.7652     3.8761     0.9056 H       
  30 H30           -0.5563     1.8234    -0.7642 H       
  31 H31            3.2250     3.7687    -0.8985 H       
  32 H32            3.2420     3.7591     0.8813 H       
  33 H33           -2.2522    -4.5317     0.5467 H       
  34 H34           -3.8516    -4.3703    -0.2177 H       
  35 H35           -2.3759    -4.2324    -1.2035 H       
  36 H36           -3.4913    -1.1558     1.3995 H       
  37 H37           -4.4837    -2.6266     1.2576 H       
  38 H38           -2.9215    -2.6858     2.1086 H       
  39 H39            1.7877     6.0208     0.0173 H       
  40 H40            5.8639     8.0589    -0.0106 H       
  41 H41            1.5719     7.8858     0.0295 H       
  42 H42            5.6913    10.5151     0.0043 H       
  43 H43            1.5464    10.3479     0.0445 H       
  44 O44           14.4228    21.5137     7.1293 O.3     
  45 O45           11.9420    15.9658     7.1232 O.3     
  46 O46           15.5010    19.5735     7.1086 O.2     
  47 O47           10.8639    17.9060     7.1439 O.2     
  48 C48           13.1733    19.4112     7.1299 C.2     
  49 C49           13.1915    18.0683     7.1225 C.2     
  50 C50           14.4411    20.1663     7.1219 C.2     
  51 C51           11.9237    17.3131     7.1306 C.2     
  52 H52           12.2308    19.9384     7.1418 H       
  53 H53           14.1340    17.5411     7.1107 H       
  54 H54           15.2784    21.9644     7.1235 H       
  55 H55           11.0865    15.5151     7.1289 H       
@<TRIPOS>BOND
   1    1   14 2
   2    2    7 1
   3    2    9 1
   4    2   30 1
   5    3    8 1
   6    3   12 1
   7    3   13 1
   8    4   11 1
   9    4   14 am
  10    4   39 1
  11    5   18 ar
  12    5   19 ar
  13    6    7 1
  14    6    8 1
  15    6   20 1
  16    6   21 1
  17    7   22 1
  18    7   23 1
  19    8   24 1
  20    8   25 1
  21    9   10 1
  22    9   26 1
  23    9   27 1
  24   10   11 1
  25   10   28 1
  26   10   29 1
  27   11   31 1
  28   11   32 1
  29   12   33 1
  30   12   34 1
  31   12   35 1
  32   13   36 1
  33   13   37 1
  34   13   38 1
  35   14   15 1
  36   15   16 ar
  37   15   17 ar
  38   16   18 ar
  39   16   40 1
  40   17   19 ar
  41   17   41 1
  42   18   42 1
  43   19   43 1
  44   44   50 1
  45   44   54 1
  46   45   51 1
  47   45   55 1
  48   46   50 2
  49   47   51 2
  50   48   49 2
  51   48   50 1
  52   48   52 1
  53   49   51 1
  54   49   53 1

#	End of record

#	Name: 6398931
#	Creating user name:	landrgr1
#	Creation time:	28. 01. 2015 13:52

#	Modifying user name:	landrgr1
#	Modification time:	28. 01. 2015 13:52

#	Program:	corina 3.48 0006  22.01.2010

@<TRIPOS>MOLECULE
6398931
  48   50    0    0    0
SMALL
NO_CHARGES


@<TRIPOS>ATOM
   1 O1            -0.5987     1.7717    -0.0496 O.3     
   2 O2            -4.6039    -0.0602     1.0147 O.2     
   3 O3            -4.1648    -0.7957    -1.7543 O.2     
   4 O4            -3.1266     2.2358     2.3450 O.3     
   5 O5            -1.9976    -1.3288    -3.4125 O.3     
   6 O6             2.5271    -3.6084    -0.3762 O.3     
   7 N7            -2.3536    -0.2985     1.1818 N.am    
   8 C8            -1.2772    -0.6552     0.2532 C.3     
   9 C9            -1.9272    -0.9038    -1.0883 C.2     
  10 C10           -2.1809     0.0265     2.5998 C.3     
  11 C11           -0.2909     0.4792     0.1463 C.2     
  12 C12           -3.5236    -0.3121     0.5214 C.2     
  13 C13           -3.3029    -0.6917    -0.9007 C.2     
  14 C14           -1.2966    -1.2660    -2.2605 C.2     
  15 C15           -1.9525     1.5314     2.7540 C.3     
  16 C16            1.0471     0.3689     0.2305 C.2     
  17 C17            0.1422    -1.5843    -2.2552 C.ar    
  18 C18            1.5759     1.6710     0.0763 C.2     
  19 C19            0.5295     2.4991    -0.0929 C.2     
  20 C20            0.6633    -2.4619    -1.3005 C.ar    
  21 C21            0.9913    -1.0140    -3.2094 C.ar    
  22 C22            2.0158    -2.7558    -1.3030 C.ar    
  23 C23            2.3368    -1.3151    -3.2009 C.ar    
  24 C24            2.8511    -2.1800    -2.2514 C.ar    
  25 C25           -3.0182     3.6568     2.4502 C.3     
  26 C26            3.9312    -3.8669    -0.4371 C.3     
  27 C27            4.3191    -4.8417     0.6765 C.3     
  28 H28           -0.7722    -1.5582     0.5963 H       
  29 H29           -3.0757    -0.2635     3.1506 H       
  30 H30           -1.3204    -0.5139     2.9942 H       
  31 H31           -1.1107     1.8367     2.1325 H       
  32 H32           -1.7359     1.7611     3.7973 H       
  33 H33            1.6094    -0.5398     0.3865 H       
  34 H34            2.6197     1.9477     0.0917 H       
  35 H35            0.5868     3.5677    -0.2388 H       
  36 H36            0.0130    -2.9089    -0.5632 H       
  37 H37            0.5933    -0.3386    -3.9523 H       
  38 H38           -1.4707    -1.5912    -4.1797 H       
  39 H39            2.9915    -0.8745    -3.9382 H       
  40 H40            3.9059    -2.4117    -2.2503 H       
  41 H41           -3.9497     4.1176     2.1213 H       
  42 H42           -2.8238     3.9305     3.4872 H       
  43 H43           -2.1985     4.0062     1.8224 H       
  44 H44            4.1786    -4.3035    -1.4047 H       
  45 H45            4.4784    -2.9329    -0.3093 H       
  46 H46            5.3901    -5.0389     0.6301 H       
  47 H47            4.0717    -4.4050     1.6441 H       
  48 H48            3.7718    -5.7756     0.5488 H       
@<TRIPOS>BOND
   1    1   11 1
   2    1   19 1
   3    2   12 2
   4    3   13 2
   5    4   15 1
   6    4   25 1
   7    5   14 1
   8    5   38 1
   9    6   22 1
  10    6   26 1
  11    7    8 1
  12    7   10 1
  13    7   12 am
  14    8    9 1
  15    8   11 1
  16    8   28 1
  17    9   13 1
  18    9   14 2
  19   10   15 1
  20   10   29 1
  21   10   30 1
  22   11   16 2
  23   12   13 1
  24   14   17 1
  25   15   31 1
  26   15   32 1
  27   16   18 1
  28   16   33 1
  29   17   20 ar
  30   17   21 ar
  31   18   19 2
  32   18   34 1
  33   19   35 1
  34   20   22 ar
  35   20   36 1
  36   21   23 ar
  37   21   37 1
  38   22   24 ar
  39   23   24 ar
  40   23   39 1
  41   24   40 1
  42   25   41 1
  43   25   42 1
  44   25   43 1
  45   26   27 1
  46   26   44 1
  47   26   45 1
  48   27   46 1
  49   27   47 1
  50   27   48 1

#	End of record

#	Name: 6398923
#	Creating user name:	landrgr1
#	Creation time:	28. 01. 2015 13:52

#	Modifying user name:	landrgr1
#	Modification time:	28. 01. 2015 13:52

#	Program:	corina 3.48 0006  22.01.2010

@<TRIPOS>MOLECULE
6398923
  38   39    0    0    0
SMALL
NO_CHARGES


@<TRIPOS>ATOM
   1 O1            -0.0162     1.3433     0.0094 O.3     
   2 O2            -2.4970    -4.2046     0.0033 O.3     
   3 O3             1.0619    -0.5969    -0.0113 O.2     
   4 O4            -3.5751    -2.2644     0.0240 O.2     
   5 C5            -1.2657    -0.7592     0.0101 C.2     
   6 C6            -1.2475    -2.1021     0.0027 C.2     
   7 C7             0.0021    -0.0041     0.0020 C.2     
   8 C8            -2.5153    -2.8573     0.0107 C.2     
   9 H9            -2.2082    -0.2320     0.0219 H       
  10 H10           -0.3050    -2.6293    -0.0091 H       
  11 H11            0.8393     1.7940     0.0037 H       
  12 H12           -3.3525    -4.6553     0.0091 H       
  13 N13            7.9739    11.2701     6.5617 N.ar    
  14 N14           11.6033     9.2586     6.5177 N.pl3   
  15 C15            8.9146     7.7620     6.5343 C.3     
  16 C16            7.4383     7.6274     6.1051 C.3     
  17 C17            9.1904     9.2497     6.5395 C.ar    
  18 C18            6.8345     8.9721     6.5608 C.3     
  19 C19            7.9917     9.9520     6.5545 C.ar    
  20 C20           10.3946     9.9375     6.5318 C.ar    
  21 C21           10.3547    11.3516     6.5393 C.ar    
  22 C22            9.0950    11.9968     6.5549 C.ar    
  23 C23           11.5281    12.1171     6.5317 C.ar    
  24 C24            9.0489    13.4014     6.5625 C.ar    
  25 C25           11.4450    13.4775     6.5381 C.ar    
  26 C26           10.2078    14.1160     6.5540 C.ar    
  27 H27            9.0579     7.3472     7.5320 H       
  28 H28            9.5642     7.2594     5.8178 H       
  29 H29            7.3583     7.5136     5.0240 H       
  30 H30            6.9600     6.7940     6.6197 H       
  31 H31            6.0619     9.2952     5.8631 H       
  32 H32            6.4227     8.8801     7.5658 H       
  33 H33           12.4929    11.6320     6.5194 H       
  34 H34           11.6148     8.2886     6.5130 H       
  35 H35           12.4376     9.7535     6.5125 H       
  36 H36            8.0974    13.9123     6.5746 H       
  37 H37           12.3497    14.0673     6.5321 H       
  38 H38           10.1668    15.1952     6.5594 H       
@<TRIPOS>BOND
   1    1    7 1
   2    1   11 1
   3    2    8 1
   4    2   12 1
   5    3    7 2
   6    4    8 2
   7    5    6 2
   8    5    7 1
   9    5    9 1
  10    6    8 1
  11    6   10 1
  12   13   19 ar
  13   13   22 ar
  14   14   20 1
  15   14   34 1
  16   14   35 1
  17   15   16 1
  18   15   17 1
  19   15   27 1
  20   15   28 1
  21   16   18 1
  22   16   29 1
  23   16   30 1
  24   17   19 ar
  25   17   20 ar
  26   18   19 1
  27   18   31 1
  28   18   32 1
  29   20   21 ar
  30   21   22 ar
  31   21   23 ar
  32   22   24 ar
  33   23   25 ar
  34   23   33 1
  35   24   26 ar
  36   24   36 1
  37   25   26 ar
  38   25   37 1
  39   26   38 1

#	End of record

#	Name: 6377208
#	Creating user name:	landrgr1
#	Creation time:	28. 01. 2015 13:52

#	Modifying user name:	landrgr1
#	Modification time:	28. 01. 2015 13:52

#	Program:	corina 3.48 0006  22.01.2010

@<TRIPOS>MOLECULE
6377208
  53   55    0    0    0
SMALL
NO_CHARGES


@<TRIPOS>ATOM
   1 S1             2.6749     0.1902    -1.9845 S.o2    
   2 S2            -4.2339     2.9026   -10.2828 S.3     
   3 F3            -0.2300     9.8996    -9.1292 F       
   4 O4             2.7282    -1.2108    -2.2161 O.2     
   5 O5             3.8204     1.0087    -2.1771 O.2     
   6 O6            -0.7016     1.8930    -4.3391 O.2     
   7 O7            -1.0965     4.6525    -9.2027 O.2     
   8 O8            -3.1501     0.6508    -9.3120 O.2     
   9 N9            -1.9915     2.6129    -9.1884 N.am    
  10 N10            0.1574     1.5056    -6.3475 N.am    
  11 C11            1.2286     0.9163    -2.8040 C.3     
  12 C12            1.4157     0.8508    -4.3211 C.3     
  13 C13            2.3231     0.3331    -0.2639 C.ar    
  14 C14           -0.8235     2.0265    -8.5265 C.3     
  15 C15           -1.0106     2.0920    -7.0094 C.3     
  16 C16            0.2142     1.4540    -5.0020 C.2     
  17 C17            1.6566    -0.6849     0.3922 C.ar    
  18 C18            2.7186     1.4607     0.4311 C.ar    
  19 C19           -2.0181     3.9046    -9.4713 C.2     
  20 C20            1.7714     0.5572     2.4360 C.ar    
  21 C21           -3.0391     1.8457    -9.5106 C.2     
  22 C22           -3.2439     4.3681   -10.1335 C.2     
  23 C23            1.3805    -0.5727     1.7421 C.ar    
  24 C24            2.4426     1.5728     1.7810 C.ar    
  25 C25           -3.5491     5.6262   -10.5383 C.2     
  26 C26            1.4701     0.6796     3.9074 C.3     
  27 C27           -2.6767     6.7491   -10.1681 C.ar    
  28 C28           -2.3961     7.7575   -11.0974 C.ar    
  29 C29           -2.1270     6.8183    -8.8826 C.ar    
  30 C30           -1.5776     8.8077   -10.7433 C.ar    
  31 C31           -1.3102     7.8742    -8.5421 C.ar    
  32 C32           -1.0321     8.8672    -9.4696 C.ar    
  33 H33            0.3345     0.3593    -2.5238 H       
  34 H34            1.1203     1.9562    -2.4958 H       
  35 H35            2.3098     1.4078    -4.6013 H       
  36 H36            1.5240    -0.1891    -4.6293 H       
  37 H37           -0.7152     0.9866    -8.8347 H       
  38 H38            0.0706     2.5835    -8.8067 H       
  39 H39           -1.9047     1.5350    -6.7293 H       
  40 H40           -1.1189     3.1319    -6.7012 H       
  41 H41            0.8899     1.1544    -6.8777 H       
  42 H42            1.3512    -1.5676    -0.1499 H       
  43 H43            3.2435     2.2539    -0.0804 H       
  44 H44            0.8592    -1.3677     2.2545 H       
  45 H45            2.7519     2.4536     2.3241 H       
  46 H46           -4.4334     5.8026   -11.1327 H       
  47 H47            2.2961     0.2624     4.4834 H       
  48 H48            1.3414     1.7307     4.1657 H       
  49 H49            0.5548     0.1343     4.1375 H       
  50 H50           -2.8199     7.7123   -12.0897 H       
  51 H51           -2.3430     6.0459    -8.1593 H       
  52 H52           -1.3599     9.5863   -11.4594 H       
  53 H53           -0.8857     7.9291    -7.5505 H       
@<TRIPOS>BOND
   1    1    4 2
   2    1    5 2
   3    1   11 1
   4    1   13 1
   5    2   21 1
   6    2   22 1
   7    3   32 1
   8    6   16 2
   9    7   19 2
  10    8   21 2
  11    9   14 1
  12    9   19 am
  13    9   21 am
  14   10   15 1
  15   10   16 am
  16   10   41 1
  17   11   12 1
  18   11   33 1
  19   11   34 1
  20   12   16 1
  21   12   35 1
  22   12   36 1
  23   13   17 ar
  24   13   18 ar
  25   14   15 1
  26   14   37 1
  27   14   38 1
  28   15   39 1
  29   15   40 1
  30   17   23 ar
  31   17   42 1
  32   18   24 ar
  33   18   43 1
  34   19   22 1
  35   20   23 ar
  36   20   24 ar
  37   20   26 1
  38   22   25 2
  39   23   44 1
  40   24   45 1
  41   25   27 1
  42   25   46 1
  43   26   47 1
  44   26   48 1
  45   26   49 1
  46   27   28 ar
  47   27   29 ar
  48   28   30 ar
  49   28   50 1
  50   29   31 ar
  51   29   51 1
  52   30   32 ar
  53   30   52 1
  54   31   32 ar
  55   31   53 1

#	End of record

#	Name: 6372746
#	Creating user name:	landrgr1
#	Creation time:	28. 01. 2015 13:52

#	Modifying user name:	landrgr1
#	Modification time:	28. 01. 2015 13:52

#	Program:	corina 3.48 0006  22.01.2010

@<TRIPOS>MOLECULE
6372746
  29   29    0    0    0
SMALL
NO_CHARGES


@<TRIPOS>ATOM
   1 S1            -0.0218     1.7541     0.0117 S.3     
   2 O2            -3.3895    -2.3423     0.0198 O.2     
   3 N3            -4.7557    -0.5891     0.0423 N.am    
   4 C4            -5.9370    -1.4554     0.0482 C.3     
   5 C5            -7.1157    -0.7063     0.6730 C.3     
   6 C6            -6.2871    -1.8502    -1.3879 C.3     
   7 C7            -6.8157    -0.4210     2.1459 C.3     
   8 C8            -3.5221    -1.1318     0.0279 C.2     
   9 C9            -2.3812    -0.2951     0.0222 C.2     
  10 C10           -1.1396    -0.8413     0.0077 C.2     
  11 C11            0.0021    -0.0041     0.0020 C.2     
  12 C12            1.3033    -0.4337    -0.0127 C.2     
  13 C13            2.2139     0.5958    -0.0159 C.2     
  14 C14            1.6828     1.8244    -0.0042 C.2     
  15 H15           -5.7268    -2.3525     0.6306 H       
  16 H16           -7.2694     0.2346     0.1446 H       
  17 H17           -8.0156    -1.3168     0.5971 H       
  18 H18           -6.4973    -0.9531    -1.9703 H       
  19 H19           -5.4474    -2.3839    -1.8330 H       
  20 H20           -7.1661    -2.4948    -1.3835 H       
  21 H21           -4.8613     0.3751     0.0488 H       
  22 H22           -6.6620    -1.3619     2.6743 H       
  23 H23           -5.9159     0.1895     2.2218 H       
  24 H24           -7.6554     0.1127     2.5910 H       
  25 H25           -2.4988     0.7784     0.0295 H       
  26 H26           -1.0220    -1.9149     0.0005 H       
  27 H27            1.5850    -1.4763    -0.0204 H       
  28 H28            3.2804     0.4258    -0.0266 H       
  29 H29            2.2571     2.7390    -0.0051 H       
@<TRIPOS>BOND
   1    1   11 1
   2    1   14 1
   3    2    8 2
   4    3    4 1
   5    3    8 am
   6    3   21 1
   7    4    5 1
   8    4    6 1
   9    4   15 1
  10    5    7 1
  11    5   16 1
  12    5   17 1
  13    6   18 1
  14    6   19 1
  15    6   20 1
  16    7   22 1
  17    7   23 1
  18    7   24 1
  19    8    9 1
  20    9   10 2
  21    9   25 1
  22   10   11 1
  23   10   26 1
  24   11   12 2
  25   12   13 1
  26   12   27 1
  27   13   14 2
  28   13   28 1
  29   14   29 1

#	End of record

#	Name: 6346348
#	Creating user name:	landrgr1
#	Creation time:	28. 01. 2015 13:52

#	Modifying user name:	landrgr1
#	Modification time:	28. 01. 2015 13:52

#	Program:	corina 3.48 0006  22.01.2010

@<TRIPOS>MOLECULE
6346348
  39   40    0    0    0
SMALL
NO_CHARGES


@<TRIPOS>ATOM
   1 F1            -1.8018     8.4831    -0.0895 F       
   2 F2            -0.5787     8.2618     1.8273 F       
   3 F3            -2.8591     8.1504     1.9081 F       
   4 O4             0.7813    -0.1629    -0.8405 O.3     
   5 O5            -4.8110    -0.5266     0.2669 O.2     
   6 O6             0.5867     0.0334     1.3642 O.2     
   7 N7            -3.1087    -2.0482     0.1665 N.am    
   8 N8            -1.4805     2.2283     0.3466 N.pl3   
   9 C9            -1.3178    -0.7287     0.2654 C.2     
  10 C10           -2.5435     0.1098     0.3199 C.2     
  11 C11           -1.7472    -2.0153     0.1736 C.2     
  12 C12           -3.6256    -0.8101     0.2516 C.2     
  13 C13           -2.6157     1.4806     0.4158 C.2     
  14 C14           -0.8509    -3.2240     0.0920 C.3     
  15 C15           -1.5411     3.6103     0.5441 C.ar    
  16 C16            0.0729    -0.2628     0.3026 C.2     
  17 C17           -1.6610     6.3469     0.9355 C.ar    
  18 C18           -0.3712     4.3576     0.5999 C.ar    
  19 C19           -2.7715     4.2410     0.6796 C.ar    
  20 C20           -0.4347     5.7231     0.7953 C.ar    
  21 C21           -2.8277     5.6069     0.8748 C.ar    
  22 C22           -1.7263     7.8372     1.1492 C.3     
  23 C23            2.1108     0.4128    -0.7439 C.3     
  24 C24            2.7075     0.5562    -2.1455 C.3     
  25 H25           -3.6369    -2.8594     0.1041 H       
  26 H26           -3.5731     1.9631     0.5461 H       
  27 H27           -1.4609    -4.1249     0.0262 H       
  28 H28           -0.2183    -3.1482    -0.7924 H       
  29 H29           -0.2252    -3.2732     0.9831 H       
  30 H30           -0.6295     1.8019     0.1600 H       
  31 H31            0.5868     3.8710     0.4908 H       
  32 H32           -3.6831     3.6637     0.6320 H       
  33 H33            0.4745     6.3041     0.8428 H       
  34 H34           -3.7837     6.0972     0.9847 H       
  35 H35            2.0486     1.3940    -0.2734 H       
  36 H36            2.7460    -0.2385    -0.1435 H       
  37 H37            2.6884    -0.4102    -2.6492 H       
  38 H38            2.1221     1.2758    -2.7177 H       
  39 H39            3.7372     0.9052    -2.0680 H       
@<TRIPOS>BOND
   1    1   22 1
   2    2   22 1
   3    3   22 1
   4    4   16 1
   5    4   23 1
   6    5   12 2
   7    6   16 2
   8    7   11 1
   9    7   12 am
  10    7   25 1
  11    8   13 1
  12    8   15 1
  13    8   30 1
  14    9   10 1
  15    9   11 2
  16    9   16 1
  17   10   12 1
  18   10   13 2
  19   11   14 1
  20   13   26 1
  21   14   27 1
  22   14   28 1
  23   14   29 1
  24   15   18 ar
  25   15   19 ar
  26   17   20 ar
  27   17   21 ar
  28   17   22 1
  29   18   20 ar
  30   18   31 1
  31   19   21 ar
  32   19   32 1
  33   20   33 1
  34   21   34 1
  35   23   24 1
  36   23   35 1
  37   23   36 1
  38   24   37 1
  39   24   38 1
  40   24   39 1

#	End of record

#	Name: 6324593
#	Creating user name:	landrgr1
#	Creation time:	28. 01. 2015 13:52

#	Modifying user name:	landrgr1
#	Modification time:	28. 01. 2015 13:52

#	Program:	corina 3.48 0006  22.01.2010

@<TRIPOS>MOLECULE
6324593
  32   33    0    0    0
SMALL
NO_CHARGES


@<TRIPOS>ATOM
   1 O1             2.2011     1.5570    -0.0106 O.2     
   2 O2             2.3007     9.6907     0.0316 O.2     
   3 N3            -0.0178     1.4608     0.0101 N.am    
   4 N4             2.2971     5.6813     0.0102 N.pl3   
   5 N5             2.2829     8.4729     0.0252 N.2     
   6 C6             0.0021    -0.0041     0.0020 C.3     
   7 C7            -1.4117    -0.5257     0.0127 C.ar    
   8 C8             1.1201     3.6274     0.0108 C.2     
   9 C9             1.1401     2.1505     0.0027 C.2     
  10 C10           -2.0716    -0.7585    -1.1795 C.ar    
  11 C11           -2.0468    -0.7767     1.2146 C.ar    
  12 C12            2.3073     4.3409     0.0033 C.2     
  13 C13           -0.1063     4.3197     0.0258 C.2     
  14 C14            1.1252     6.3751     0.0247 C.2     
  15 C15           -0.0955     5.6996     0.0327 C.2     
  16 C16           -3.3685    -1.2369    -1.1696 C.ar    
  17 C17           -3.3436    -1.2552     1.2245 C.ar    
  18 C18           -4.0053    -1.4830     0.0323 C.ar    
  19 C19            1.1465     7.8386     0.0323 C.2     
  20 H20            0.5123    -0.3556    -0.8948 H       
  21 H21            0.5293    -0.3651     0.8851 H       
  22 H22           -0.8643     1.9343     0.0167 H       
  23 H23           -1.5740    -0.5663    -2.1185 H       
  24 H24           -1.5295    -0.5993     2.1460 H       
  25 H25            3.2492     3.8127    -0.0085 H       
  26 H26           -1.0411     3.7789     0.0315 H       
  27 H27            3.1380     6.1649     0.0089 H       
  28 H28           -1.0236     6.2517     0.0438 H       
  29 H29           -3.8843    -1.4181    -2.1011 H       
  30 H30           -3.8396    -1.4516     2.1635 H       
  31 H31           -5.0187    -1.8564     0.0400 H       
  32 H32            0.2192     8.3921     0.0437 H       
@<TRIPOS>BOND
   1    1    9 2
   2    2    5 2
   3    3    6 1
   4    3    9 am
   5    3   22 1
   6    4   12 1
   7    4   14 1
   8    4   27 1
   9    5   19 1
  10    6    7 1
  11    6   20 1
  12    6   21 1
  13    7   10 ar
  14    7   11 ar
  15    8    9 1
  16    8   12 2
  17    8   13 1
  18   10   16 ar
  19   10   23 1
  20   11   17 ar
  21   11   24 1
  22   12   25 1
  23   13   15 2
  24   13   26 1
  25   14   15 1
  26   14   19 2
  27   15   28 1
  28   16   18 ar
  29   16   29 1
  30   17   18 ar
  31   17   30 1
  32   18   31 1
  33   19   32 1

#	End of record

#	Name: 6295617
#	Creating user name:	landrgr1
#	Creation time:	28. 01. 2015 13:52

#	Modifying user name:	landrgr1
#	Modification time:	28. 01. 2015 13:52

#	Program:	corina 3.48 0006  22.01.2010

@<TRIPOS>MOLECULE
6295617
  34   35    0    0    0
SMALL
NO_CHARGES


@<TRIPOS>ATOM
   1 Cl1            1.4085     7.8190     0.0290 Cl      
   2 O2             0.5856    -2.7493    -2.2626 O.2     
   3 O3            -0.0144     1.2138     0.0087 O.3     
   4 O4             2.2044     1.1933    -0.0126 O.2     
   5 N5             0.2995    -2.6420    -0.0150 N.am    
   6 N6            -2.3090     0.0058     0.0241 N.pl3   
   7 N7             0.0021    -0.0041     0.0020 N.2     
   8 C8             1.0954    -2.9138     1.1877 C.3     
   9 C9             2.5637    -2.9565     0.7093 C.3     
  10 C10            2.3997    -3.3512    -0.7767 C.3     
  11 C11            1.0054    -2.8845    -1.1329 C.2     
  12 C12           -1.0882    -2.1725     0.0008 C.3     
  13 C13           -1.1086    -0.6656     0.0091 C.2     
  14 C14            1.2338     3.3168     0.0081 C.ar    
  15 C15            1.1765     1.8412     0.0007 C.2     
  16 C16            2.4679     3.9706    -0.0002 C.ar    
  17 C17            0.0540     4.0642     0.0175 C.ar    
  18 C18            2.5148     5.3486     0.0063 C.ar    
  19 C19            0.1141     5.4417     0.0239 C.ar    
  20 C20            1.3412     6.0843     0.0210 C.ar    
  21 H21            0.9597    -2.1162     1.9181 H       
  22 H22            0.8112    -3.8736     1.6191 H       
  23 H23            3.0332    -1.9774     0.8034 H       
  24 H24            3.1294    -3.7127     1.2536 H       
  25 H25            3.1414    -2.8408    -1.3911 H       
  26 H26            2.4825    -4.4315    -0.8959 H       
  27 H27           -1.6055    -2.5380    -0.8863 H       
  28 H28           -1.5885    -2.5475     0.8936 H       
  29 H29           -2.3221     0.9757     0.0295 H       
  30 H30           -3.1423    -0.4906     0.0294 H       
  31 H31            3.3836     3.3980    -0.0113 H       
  32 H32           -0.9033     3.5643     0.0195 H       
  33 H33            3.4685     5.8554     0.0003 H       
  34 H34           -0.7975     6.0208     0.0308 H       
@<TRIPOS>BOND
   1    1   20 1
   2    2   11 2
   3    3    7 1
   4    3   15 1
   5    4   15 2
   6    5    8 1
   7    5   11 am
   8    5   12 1
   9    6   13 1
  10    6   29 1
  11    6   30 1
  12    7   13 2
  13    8    9 1
  14    8   21 1
  15    8   22 1
  16    9   10 1
  17    9   23 1
  18    9   24 1
  19   10   11 1
  20   10   25 1
  21   10   26 1
  22   12   13 1
  23   12   27 1
  24   12   28 1
  25   14   15 1
  26   14   16 ar
  27   14   17 ar
  28   16   18 ar
  29   16   31 1
  30   17   19 ar
  31   17   32 1
  32   18   20 ar
  33   18   33 1
  34   19   20 ar
  35   19   34 1

#	End of record

#	Name: 6284317
#	Creating user name:	landrgr1
#	Creation time:	28. 01. 2015 13:52

#	Modifying user name:	landrgr1
#	Modification time:	28. 01. 2015 13:52

#	Program:	corina 3.48 0006  22.01.2010

@<TRIPOS>MOLECULE
6284317
  49   50    0    0    0
SMALL
NO_CHARGES


@<TRIPOS>ATOM
   1 O1            -2.6692    -2.9699     3.9888 O.2     
   2 O2            -6.5840    -4.8055     2.2246 O.2     
   3 O3            -6.0944    -4.0807     6.5644 O.2     
   4 O4             0.3243     0.9838    -0.2338 O.3     
   5 O5             2.6143    -3.0703     0.7338 O.3     
   6 N6            -2.8267    -3.1863     1.4502 N.pl3   
   7 N7            -4.3827    -3.5218     5.3097 N.am    
   8 N8            -6.3622    -4.4499     4.4177 N.am    
   9 C9            -4.0072    -3.8065     1.6477 C.2     
  10 C10           -4.5466    -3.8776     2.9186 C.2     
  11 C11           -4.7389    -4.4224     0.4830 C.3     
  12 C12           -2.2260    -3.1629     0.1143 C.3     
  13 C13           -3.7929    -3.4228     4.1006 C.2     
  14 C14           -5.9007    -4.4111     3.1507 C.2     
  15 C15           -0.9197    -2.4132     0.1639 C.ar    
  16 C16           -5.6202    -4.0182     5.4471 C.2     
  17 C17           -5.7791    -3.4332    -0.0465 C.3     
  18 C18            0.2550    -3.0911     0.4281 C.ar    
  19 C19           -0.8981    -1.0497    -0.0591 C.ar    
  20 C20           -3.6517    -3.0820     6.5008 C.3     
  21 C21           -7.7052    -4.9758     4.6744 C.3     
  22 C22            0.3035    -0.3570    -0.0135 C.ar    
  23 C23            1.4592    -2.4029     0.4748 C.ar    
  24 C24            1.4828    -1.0340     0.2566 C.ar    
  25 C25            1.5963     1.6320    -0.1713 C.3     
  26 C26            3.8163    -2.2981     0.7667 C.3     
  27 H27           -4.0278    -4.6601    -0.3081 H       
  28 H28           -5.2382    -5.3348     0.8091 H       
  29 H29           -2.0462    -4.1843    -0.2212 H       
  30 H30           -2.9037    -2.6664    -0.5802 H       
  31 H31           -2.3750    -2.7556     2.1927 H       
  32 H32           -6.4901    -3.1954     0.7447 H       
  33 H33           -5.2798    -2.5207    -0.3725 H       
  34 H34           -6.3083    -3.8786    -0.8888 H       
  35 H35            0.2360    -4.1573     0.5987 H       
  36 H36           -1.8170    -0.5227    -0.2694 H       
  37 H37           -3.8576    -2.0275     6.6847 H       
  38 H38           -3.9715    -3.6700     7.3610 H       
  39 H39           -2.5823    -3.2212     6.3427 H       
  40 H40           -7.6471    -6.0498     4.8517 H       
  41 H41           -8.1260    -4.4850     5.5519 H       
  42 H42           -8.3417    -4.7841     3.8106 H       
  43 H43            2.4189    -0.4966     0.2925 H       
  44 H44            1.4713     2.6972    -0.3652 H       
  45 H45            2.0275     1.4913     0.8199 H       
  46 H46            2.2606     1.2017    -0.9208 H       
  47 H47            3.9661    -1.8177    -0.2002 H       
  48 H48            3.7378    -1.5366     1.5426 H       
  49 H49            4.6618    -2.9512     0.9828 H       
@<TRIPOS>BOND
   1    1   13 2
   2    2   14 2
   3    3   16 2
   4    4   22 1
   5    4   25 1
   6    5   23 1
   7    5   26 1
   8    6    9 1
   9    6   12 1
  10    6   31 1
  11    7   13 am
  12    7   16 am
  13    7   20 1
  14    8   14 am
  15    8   16 am
  16    8   21 1
  17    9   10 2
  18    9   11 1
  19   10   13 1
  20   10   14 1
  21   11   17 1
  22   11   27 1
  23   11   28 1
  24   12   15 1
  25   12   29 1
  26   12   30 1
  27   15   18 ar
  28   15   19 ar
  29   17   32 1
  30   17   33 1
  31   17   34 1
  32   18   23 ar
  33   18   35 1
  34   19   22 ar
  35   19   36 1
  36   20   37 1
  37   20   38 1
  38   20   39 1
  39   21   40 1
  40   21   41 1
  41   21   42 1
  42   22   24 ar
  43   23   24 ar
  44   24   43 1
  45   25   44 1
  46   25   45 1
  47   25   46 1
  48   26   47 1
  49   26   48 1
  50   26   49 1

#	End of record

#	Name: 6282858
#	Creating user name:	landrgr1
#	Creation time:	28. 01. 2015 13:52

#	Modifying user name:	landrgr1
#	Modification time:	28. 01. 2015 13:52

#	Program:	corina 3.48 0006  22.01.2010

@<TRIPOS>MOLECULE
6282858
  64   66    0    0    0
SMALL
NO_CHARGES


@<TRIPOS>ATOM
   1 O1            -0.0164     1.3548     0.0095 O.3     
   2 O2             0.3390     8.3107     1.0962 O.2     
   3 O3            -0.6215    14.5622    -4.6434 O.3     
   4 O4            -0.5893    14.5344     0.1550 O.3     
   5 O5            -0.7801    15.7840    -2.2359 O.2     
   6 N6             0.3091     8.3882    -1.1231 N.am    
   7 N7             0.1067     9.7745    -1.1137 N.pl3   
   8 C8            -2.5051     0.0187     0.0265 C.3     
   9 C9            -1.1889    -0.7151     0.0096 C.ar    
  10 C10            0.0021    -0.0041     0.0020 C.ar    
  11 C11           -3.3139    -0.3559    -1.2170 C.3     
  12 C12           -3.2896    -0.3701     1.2813 C.3     
  13 C13           -1.1675    -2.0965     0.0068 C.ar    
  14 C14            1.2123    -0.6826    -0.0136 C.ar    
  15 C15            1.2283    -2.0637    -0.0217 C.ar    
  16 C16            0.0396    -2.7702    -0.0083 C.ar    
  17 C17            1.2479     2.0208     0.0010 C.3     
  18 C18            1.0302     3.5120     0.0111 C.ar    
  19 C19            2.5424    -2.8012    -0.0387 C.3     
  20 C20            0.9422     4.1870     1.2156 C.ar    
  21 C21            0.9250     4.2007    -1.1843 C.ar    
  22 C22            0.6307     6.2521     0.0296 C.ar    
  23 C23            0.7430     5.5520     1.2319 C.ar    
  24 C24            0.7266     5.5660    -1.1821 C.ar    
  25 C25            0.4171     7.7151     0.0395 C.2     
  26 C26           -0.2029    11.8286    -2.2626 C.2     
  27 C27           -0.0009    10.4451    -2.2720 C.2     
  28 C28           -0.3162    12.5350    -3.4811 C.2     
  29 C29           -0.2996    12.5209    -1.0346 C.2     
  30 C30           -0.5127    13.8815    -3.4704 C.2     
  31 C31           -0.4961    13.8674    -1.0272 C.2     
  32 C32           -0.6032    14.5719    -2.2441 C.2     
  33 C33           -0.5198    13.7997    -5.8477 C.3     
  34 C34           -0.4717    13.7581     1.3489 C.3     
  35 H35           -2.3221     1.0932     0.0308 H       
  36 H36           -2.7550    -0.0790    -2.1110 H       
  37 H37           -3.4970    -1.4304    -1.2214 H       
  38 H38           -4.2659     0.1748    -1.2048 H       
  39 H39           -2.7134    -0.1032     2.1672 H       
  40 H40           -4.2416     0.1606     1.2935 H       
  41 H41           -3.4727    -1.4446     1.2770 H       
  42 H42           -2.0945    -2.6506     0.0168 H       
  43 H43            2.1410    -0.1312    -0.0199 H       
  44 H44            0.0543    -3.8501    -0.0101 H       
  45 H45            1.8173     1.7308     0.8840 H       
  46 H46            1.8003     1.7403    -0.8958 H       
  47 H47            2.8692    -2.9849     0.9848 H       
  48 H48            2.4186    -3.7522    -0.5568 H       
  49 H49            3.2898    -2.2001    -0.5564 H       
  50 H50            1.0293     3.6441     2.1452 H       
  51 H51            0.9987     3.6685    -2.1211 H       
  52 H52            0.6737     6.0777     2.1728 H       
  53 H53            0.6453     6.1026    -2.1158 H       
  54 H54            0.3714     7.9128    -1.9664 H       
  55 H55            0.0685     9.9158    -3.2109 H       
  56 H56           -0.2466    12.0067    -4.4205 H       
  57 H57           -0.2179    11.9816    -0.1025 H       
  58 H58            0.0444    10.2498    -0.2705 H       
  59 H59           -1.3099    13.0491    -5.8703 H       
  60 H60           -0.6234    14.4622    -6.7070 H       
  61 H61            0.4514    13.3062    -5.8844 H       
  62 H62           -1.2614    13.0072     1.3733 H       
  63 H63            0.4999    13.2643     1.3670 H       
  64 H64           -0.5639    14.4106     2.2172 H       
@<TRIPOS>BOND
   1    1   10 1
   2    1   17 1
   3    2   25 2
   4    3   30 1
   5    3   33 1
   6    4   31 1
   7    4   34 1
   8    5   32 2
   9    6    7 1
  10    6   25 am
  11    6   54 1
  12    7   27 1
  13    7   58 1
  14    8    9 1
  15    8   11 1
  16    8   12 1
  17    8   35 1
  18    9   10 ar
  19    9   13 ar
  20   10   14 ar
  21   11   36 1
  22   11   37 1
  23   11   38 1
  24   12   39 1
  25   12   40 1
  26   12   41 1
  27   13   16 ar
  28   13   42 1
  29   14   15 ar
  30   14   43 1
  31   15   16 ar
  32   15   19 1
  33   16   44 1
  34   17   18 1
  35   17   45 1
  36   17   46 1
  37   18   20 ar
  38   18   21 ar
  39   19   47 1
  40   19   48 1
  41   19   49 1
  42   20   23 ar
  43   20   50 1
  44   21   24 ar
  45   21   51 1
  46   22   23 ar
  47   22   24 ar
  48   22   25 1
  49   23   52 1
  50   24   53 1
  51   26   27 2
  52   26   28 1
  53   26   29 1
  54   27   55 1
  55   28   30 2
  56   28   56 1
  57   29   31 2
  58   29   57 1
  59   30   32 1
  60   31   32 1
  61   33   59 1
  62   33   60 1
  63   33   61 1
  64   34   62 1
  65   34   63 1
  66   34   64 1

#	End of record

#	Name: 6263696
#	Creating user name:	landrgr1
#	Creation time:	28. 01. 2015 13:52

#	Modifying user name:	landrgr1
#	Modification time:	28. 01. 2015 13:52

#	Program:	corina 3.48 0006  22.01.2010

@<TRIPOS>MOLECULE
6263696
  47   48    0    0    0
SMALL
NO_CHARGES


@<TRIPOS>ATOM
   1 S1            -4.0374    -0.7803     0.0406 S.2     
   2 O2            -1.2159    -4.9007    -0.0325 O.2     
   3 N3            -2.4825     1.3677    -0.1868 N.am    
   4 C4             4.7586    -7.2630    -0.6241 C.3     
   5 C5             3.4719    -6.4893    -0.4939 C.ar    
   6 C6             4.7064    -8.1315    -1.8826 C.3     
   7 C7             5.9324    -6.2870    -0.7263 C.3     
   8 C8             4.9433    -8.1559     0.6045 C.3     
   9 C9             2.2695    -7.1655    -0.3860 C.ar    
  10 C10            3.4987    -5.1060    -0.4766 C.ar    
  11 C11            1.0881    -6.4634    -0.2665 C.ar    
  12 C12            2.3245    -4.3918    -0.3577 C.ar    
  13 C13            1.1076    -5.0677    -0.2542 C.ar    
  14 C14           -0.1557    -4.3081    -0.1269 C.2     
  15 C15           -1.2809    -0.7392    -0.1000 C.2     
  16 C16           -0.1325    -2.8950    -0.1147 C.2     
  17 C17           -2.5320     0.0243    -0.0908 C.2     
  18 C18           -1.2914    -2.1982     0.0021 C.2     
  19 C19           -3.7287     2.1377    -0.1778 C.3     
  20 C20           -0.0769    -0.0356    -0.1979 C.2     
  21 C21           -1.2986     2.0170    -0.2857 C.2     
  22 C22           -0.1153     1.3538    -0.2930 C.2     
  23 C23           -4.0851     2.5003     1.2408 C.2     
  24 C24           -4.2864     3.7532     1.5659 C.2     
  25 H25            4.5748    -7.4953    -2.7579 H       
  26 H26            5.6370    -8.6911    -1.9768 H       
  27 H27            3.8701    -8.8268    -1.8098 H       
  28 H28            5.9696    -5.6682     0.1703 H       
  29 H29            6.8631    -6.8466    -0.8205 H       
  30 H30            5.8008    -5.6508    -1.6016 H       
  31 H31            4.1071    -8.8513     0.6773 H       
  32 H32            5.8740    -8.7155     0.5103 H       
  33 H33            4.9805    -7.5372     1.5011 H       
  34 H34            2.2558    -8.2454    -0.3960 H       
  35 H35            4.4409    -4.5842    -0.5571 H       
  36 H36            0.1502    -6.9923    -0.1831 H       
  37 H37            2.3467    -3.3121    -0.3443 H       
  38 H38            0.8074    -2.3696    -0.1984 H       
  39 H39           -2.2213    -2.7211     0.1704 H       
  40 H40           -3.5978     3.0477    -0.7634 H       
  41 H41           -4.5292     1.5385    -0.6117 H       
  42 H42            0.8667    -0.5609    -0.2079 H       
  43 H43           -1.2963     3.0944    -0.3613 H       
  44 H44            0.8077     1.9095    -0.3688 H       
  45 H45           -4.1745     1.7271     1.9896 H       
  46 H46           -4.5418     4.0130     2.5826 H       
  47 H47           -4.1970     4.5264     0.8171 H       
@<TRIPOS>BOND
   1    1   17 2
   2    2   14 2
   3    3   17 am
   4    3   19 1
   5    3   21 1
   6    4    5 1
   7    4    6 1
   8    4    7 1
   9    4    8 1
  10    5    9 ar
  11    5   10 ar
  12    6   25 1
  13    6   26 1
  14    6   27 1
  15    7   28 1
  16    7   29 1
  17    7   30 1
  18    8   31 1
  19    8   32 1
  20    8   33 1
  21    9   11 ar
  22    9   34 1
  23   10   12 ar
  24   10   35 1
  25   11   13 ar
  26   11   36 1
  27   12   13 ar
  28   12   37 1
  29   13   14 1
  30   14   16 1
  31   15   17 1
  32   15   18 1
  33   15   20 2
  34   16   18 2
  35   16   38 1
  36   18   39 1
  37   19   23 1
  38   19   40 1
  39   19   41 1
  40   20   22 1
  41   20   42 1
  42   21   22 2
  43   21   43 1
  44   22   44 1
  45   23   24 2
  46   23   45 1
  47   24   46 1
  48   24   47 1

#	End of record

#	Name: 6247117
#	Creating user name:	landrgr1
#	Creation time:	28. 01. 2015 13:52

#	Modifying user name:	landrgr1
#	Modification time:	28. 01. 2015 13:52

#	Program:	corina 3.48 0006  22.01.2010

@<TRIPOS>MOLECULE
6247117
  32   34    0    0    0
SMALL
NO_CHARGES


@<TRIPOS>ATOM
   1 S1            -0.0039     1.7928     0.4524 S.3     
   2 N2             2.1986     0.6014     0.5344 N.2     
   3 N3             6.7322     5.1120    -0.9438 N.ar    
   4 N4             1.4754     5.2765    -0.3204 N.1     
   5 C5            -0.7453    -2.2792     0.8776 C.3     
   6 C6             0.5253    -2.5193     1.6977 C.3     
   7 C7            -1.1684    -0.8147     1.0334 C.3     
   8 C8             1.7031    -1.8051     1.0323 C.3     
   9 C9             0.0345     0.0647     0.7832 C.2     
  10 C10            1.3168    -0.3536     0.7780 C.2     
  11 C11            1.7526     1.8047     0.3322 C.2     
  12 C12            2.5835     2.9893     0.0474 C.2     
  13 C13            3.9396     2.8702    -0.0206 C.2     
  14 C14            4.7773     4.0709    -0.1334 C.ar    
  15 C15            1.9656     4.2647    -0.1577 C.1     
  16 C16            4.3839     5.2764     0.4699 C.ar    
  17 C17            5.9827     4.0344    -0.8439 C.ar    
  18 C18            5.2097     6.3766     0.3333 C.ar    
  19 C19            6.3861     6.2567    -0.3863 C.ar    
  20 H20           -0.5472    -2.4918    -0.1729 H       
  21 H21           -1.5415    -2.9298     1.2394 H       
  22 H22            0.3865    -2.1287     2.7058 H       
  23 H23            0.7295    -3.5888     1.7471 H       
  24 H24           -1.9494    -0.5806     0.3101 H       
  25 H25           -1.5402    -0.6469     2.0442 H       
  26 H26            2.5717    -1.8424     1.6898 H       
  27 H27            1.9378    -2.2918     0.0857 H       
  28 H28            4.3979     1.8927     0.0086 H       
  29 H29            3.4602     5.3423     1.0258 H       
  30 H30            6.3002     3.1154    -1.3140 H       
  31 H31            4.9395     7.3204     0.7833 H       
  32 H32            7.0318     7.1157    -0.4940 H       
@<TRIPOS>BOND
   1    1    9 1
   2    1   11 1
   3    2   10 1
   4    2   11 2
   5    3   17 ar
   6    3   19 ar
   7    4   15 3
   8    5    6 1
   9    5    7 1
  10    5   20 1
  11    5   21 1
  12    6    8 1
  13    6   22 1
  14    6   23 1
  15    7    9 1
  16    7   24 1
  17    7   25 1
  18    8   10 1
  19    8   26 1
  20    8   27 1
  21    9   10 2
  22   11   12 1
  23   12   13 2
  24   12   15 1
  25   13   14 1
  26   13   28 1
  27   14   16 ar
  28   14   17 ar
  29   16   18 ar
  30   16   29 1
  31   17   30 1
  32   18   19 ar
  33   18   31 1
  34   19   32 1

#	End of record

#	Name: 6243374
#	Creating user name:	landrgr1
#	Creation time:	28. 01. 2015 13:52

#	Modifying user name:	landrgr1
#	Modification time:	28. 01. 2015 13:52

#	Program:	corina 3.48 0006  22.01.2010

@<TRIPOS>MOLECULE
6243374
  40   42    0    0    0
SMALL
NO_CHARGES


@<TRIPOS>ATOM
   1 O1            -0.0164     1.3611     0.0095 O.3     
   2 O2             2.0365     0.6688    -0.6528 O.3     
   3 O3            -2.8317    -2.9272     0.9107 O.2     
   4 O4            -5.8384   -11.9191     1.8674 O.2     
   5 O5            -7.1875   -10.3571     2.3038 O.2     
   6 N6            -2.1079    -6.9203     0.6725 N.pl3   
   7 N7            -1.5406    -9.6545     0.4859 N.pl3   
   8 N8            -6.0836   -10.7288     1.9479 N.pl3   
   9 C9             0.0021    -0.0041     0.0020 C.ar    
  10 C10            1.2669    -0.4297    -0.4058 C.ar    
  11 C11           -0.6874    -2.2976     0.2209 C.ar    
  12 C12           -3.0914    -7.8646     0.9880 C.ar    
  13 C13           -2.8083    -9.2276     0.8951 C.ar    
  14 C14           -0.9714    -0.9332     0.3141 C.ar    
  15 C15            1.5478    -1.7863    -0.4979 C.ar    
  16 C16            0.5805    -2.7173    -0.1878 C.ar    
  17 C17            1.3659     1.7637    -0.0015 C.3     
  18 C18           -3.7878   -10.1580     1.2093 C.ar    
  19 C19           -4.3491    -7.4484     1.3996 C.ar    
  20 C20           -5.0399    -9.7339     1.6131 C.ar    
  21 C21           -1.7261    -3.2949     0.5541 C.2     
  22 C22           -5.3189    -8.3828     1.7107 C.ar    
  23 C23           -1.4370    -4.6743     0.4593 C.2     
  24 C24           -2.3874    -5.5867     0.7642 C.2     
  25 C25           -1.2457   -11.0862     0.3891 C.3     
  26 H26           -1.9506    -0.6051     0.6300 H       
  27 H27            2.5275    -2.1128    -0.8140 H       
  28 H28            0.8029    -3.7716    -0.2603 H       
  29 H29            1.4922     2.6838    -0.5720 H       
  30 H30            1.7364     1.8888     1.0159 H       
  31 H31           -3.5723   -11.2139     1.1382 H       
  32 H32           -4.5704    -6.3941     1.4773 H       
  33 H33           -1.2278    -7.2130     0.3887 H       
  34 H34           -6.2973    -8.0570     2.0313 H       
  35 H35           -0.8568    -9.0025     0.2662 H       
  36 H36           -0.4571    -5.0002     0.1433 H       
  37 H37           -3.3673    -5.2608     1.0802 H       
  38 H38           -0.2166   -11.2236     0.0571 H       
  39 H39           -1.3774   -11.5512     1.3661 H       
  40 H40           -1.9236   -11.5492    -0.3280 H       
@<TRIPOS>BOND
   1    1    9 1
   2    1   17 1
   3    2   10 1
   4    2   17 1
   5    3   21 2
   6    4    8 2
   7    5    8 2
   8    6   12 1
   9    6   24 1
  10    6   33 1
  11    7   13 1
  12    7   25 1
  13    7   35 1
  14    8   20 1
  15    9   10 ar
  16    9   14 ar
  17   10   15 ar
  18   11   14 ar
  19   11   16 ar
  20   11   21 1
  21   12   13 ar
  22   12   19 ar
  23   13   18 ar
  24   14   26 1
  25   15   16 ar
  26   15   27 1
  27   16   28 1
  28   17   29 1
  29   17   30 1
  30   18   20 ar
  31   18   31 1
  32   19   22 ar
  33   19   32 1
  34   20   22 ar
  35   21   23 1
  36   22   34 1
  37   23   24 2
  38   23   36 1
  39   24   37 1
  40   25   38 1
  41   25   39 1
  42   25   40 1

#	End of record

#	Name: 6238133
#	Creating user name:	landrgr1
#	Creation time:	28. 01. 2015 13:52

#	Modifying user name:	landrgr1
#	Modification time:	28. 01. 2015 13:52

#	Program:	corina 3.48 0006  22.01.2010

@<TRIPOS>MOLECULE
6238133
  56   58    0    0    0
SMALL
NO_CHARGES


@<TRIPOS>ATOM
   1 O1             5.4228    -1.8415     1.2381 O.2     
   2 O2             0.1074     1.4183    -0.4319 O.3     
   3 O3             3.2152    -5.6709     0.9915 O.2     
   4 O4            -2.2547     0.0144    -0.6229 O.3     
   5 O5             7.6255    -5.9593     1.2462 O.2     
   6 N6             4.2861    -3.7589     1.1078 N.am    
   7 N7             9.0684    -3.8501     1.2372 N.pl3   
   8 N8            13.9202    -4.4619     1.3165 N.pl3   
   9 N9             5.3996    -5.8411     1.1171 N.am    
  10 N10           15.4089    -5.9679     1.7315 N.2     
  11 C11            3.0110    -3.0398     1.0518 C.3     
  12 C12            2.6560    -2.7439    -0.4067 C.3     
  13 C13           11.4899    -4.1922     1.2679 C.3     
  14 C14            1.3443    -2.0042    -0.4644 C.ar    
  15 C15           10.3545    -3.1847     1.4594 C.3     
  16 C16           12.8330    -3.4972     1.5000 C.3     
  17 C17            5.4346    -3.0575     1.2010 C.2     
  18 C18            6.7042    -3.8041     1.2564 C.2     
  19 C19            4.2845    -5.0988     1.0708 C.2     
  20 C20            7.9202    -3.1534     1.3526 C.2     
  21 C21            1.3292    -0.6225    -0.4215 C.ar    
  22 C22            0.1591    -2.7087    -0.5657 C.ar    
  23 C23            6.6206    -5.2746     1.2051 C.2     
  24 C24            0.1240     0.0592    -0.4744 C.ar    
  25 C25           -1.0468    -2.0348    -0.6189 C.ar    
  26 C26           -1.0693    -0.6501    -0.5707 C.ar    
  27 C27           14.5732    -4.7368     0.1453 C.2     
  28 C28           14.4692    -5.2419     2.2725 C.2     
  29 C29           15.4947    -5.6782     0.4247 C.2     
  30 C30            1.3702     2.0798    -0.3324 C.3     
  31 C31           -3.4393    -0.7788    -0.7213 C.3     
  32 H32            2.2283    -3.6526     1.4991 H       
  33 H33            3.0978    -2.1028     1.6019 H       
  34 H34            3.4387    -2.1311    -0.8540 H       
  35 H35            2.5693    -3.6808    -0.9569 H       
  36 H36           11.3753    -5.0086     1.9809 H       
  37 H37           11.4565    -4.5886     0.2531 H       
  38 H38           10.4691    -2.3682     0.7465 H       
  39 H39           10.3879    -2.7882     2.4743 H       
  40 H40           12.8664    -3.1008     2.5148 H       
  41 H41           12.9476    -2.6807     0.7870 H       
  42 H42            9.0431    -4.7921     1.0070 H       
  43 H43            7.9502    -2.0869     1.5203 H       
  44 H44            2.2568    -0.0744    -0.3465 H       
  45 H45            0.1753    -3.7879    -0.6038 H       
  46 H46            5.3268    -6.8079     1.0865 H       
  47 H47           -1.9712    -2.5875    -0.6985 H       
  48 H48           14.3852    -4.2856    -0.8177 H       
  49 H49           14.1790    -5.2611     3.3126 H       
  50 H50           16.1825    -6.1219    -0.2799 H       
  51 H51            1.9847     1.8212    -1.1947 H       
  52 H52            1.2144     3.1583    -0.3075 H       
  53 H53            1.8746     1.7644     0.5809 H       
  54 H54           -3.5097    -1.4357     0.1457 H       
  55 H55           -4.3118    -0.1263    -0.7545 H       
  56 H56           -3.4000    -1.3795    -1.6300 H       
@<TRIPOS>BOND
   1    1   17 2
   2    2   24 1
   3    2   30 1
   4    3   19 2
   5    4   26 1
   6    4   31 1
   7    5   23 2
   8    6   11 1
   9    6   17 am
  10    6   19 am
  11    7   15 1
  12    7   20 1
  13    7   42 1
  14    8   16 1
  15    8   27 1
  16    8   28 1
  17    9   19 am
  18    9   23 am
  19    9   46 1
  20   10   28 2
  21   10   29 1
  22   11   12 1
  23   11   32 1
  24   11   33 1
  25   12   14 1
  26   12   34 1
  27   12   35 1
  28   13   15 1
  29   13   16 1
  30   13   36 1
  31   13   37 1
  32   14   21 ar
  33   14   22 ar
  34   15   38 1
  35   15   39 1
  36   16   40 1
  37   16   41 1
  38   17   18 1
  39   18   20 2
  40   18   23 1
  41   20   43 1
  42   21   24 ar
  43   21   44 1
  44   22   25 ar
  45   22   45 1
  46   24   26 ar
  47   25   26 ar
  48   25   47 1
  49   27   29 2
  50   27   48 1
  51   28   49 1
  52   29   50 1
  53   30   51 1
  54   30   52 1
  55   30   53 1
  56   31   54 1
  57   31   55 1
  58   31   56 1

#	End of record

#	Name: 6224024
#	Creating user name:	landrgr1
#	Creation time:	28. 01. 2015 13:52

#	Modifying user name:	landrgr1
#	Modification time:	28. 01. 2015 13:52

#	Program:	corina 3.48 0006  22.01.2010

@<TRIPOS>MOLECULE
6224024
  33   36    0    0    0
SMALL
NO_CHARGES


@<TRIPOS>ATOM
   1 N1            -0.0166     1.3736     0.0096 N.pl3   
   2 N2            -2.3529     1.4420     0.0323 N.2     
   3 N3             1.2607    -0.3800    -0.0120 N.2     
   4 N4             2.0273     0.6542    -0.0138 N.2     
   5 C5             0.0021    -0.0041     0.0020 C.2     
   6 C6            -1.2882    -0.6998     0.0106 C.ar    
   7 C7            -2.4619     0.0890     0.0261 C.ar    
   8 C8             1.3007     1.7578    -0.0009 C.2     
   9 C9            -1.2032     2.0430     0.0294 C.2     
  10 C10           -1.3816    -2.0893     0.0045 C.ar    
  11 C11           -3.7070    -0.5415     0.0293 C.ar    
  12 C12            1.8063     3.1326     0.0012 C.2     
  13 C13           -2.6231    -2.6880     0.0136 C.ar    
  14 C14           -3.7774    -1.9172     0.0228 C.ar    
  15 C15            3.1340     3.3622    -0.0102 C.2     
  16 C16            3.6422     4.7440    -0.0080 C.ar    
  17 C17            5.0192     4.9863    -0.0198 C.ar    
  18 C18            2.7502     5.8207    -0.0001 C.ar    
  19 C19            5.4874     6.2833    -0.0182 C.ar    
  20 C20            3.2338     7.1121     0.0014 C.ar    
  21 C21            4.5982     7.3438    -0.0045 C.ar    
  22 H22           -1.1859     3.1229     0.0349 H       
  23 H23           -0.4868    -2.6940    -0.0077 H       
  24 H24           -4.6124     0.0472     0.0373 H       
  25 H25            1.1149     3.9622     0.0119 H       
  26 H26           -2.6984    -3.7654     0.0089 H       
  27 H27           -4.7425    -2.4019     0.0257 H       
  28 H28            3.8254     2.5326    -0.0209 H       
  29 H29            5.7142     4.1598    -0.0298 H       
  30 H30            1.6852     5.6414     0.0046 H       
  31 H31            6.5507     6.4721    -0.0273 H       
  32 H32            2.5461     7.9448     0.0072 H       
  33 H33            4.9710     8.3574    -0.0026 H       
@<TRIPOS>BOND
   1    1    5 1
   2    1    8 1
   3    1    9 1
   4    2    7 1
   5    2    9 2
   6    3    4 1
   7    3    5 2
   8    4    8 2
   9    5    6 1
  10    6    7 ar
  11    6   10 ar
  12    7   11 ar
  13    8   12 1
  14    9   22 1
  15   10   13 ar
  16   10   23 1
  17   11   14 ar
  18   11   24 1
  19   12   15 2
  20   12   25 1
  21   13   14 ar
  22   13   26 1
  23   14   27 1
  24   15   16 1
  25   15   28 1
  26   16   17 ar
  27   16   18 ar
  28   17   19 ar
  29   17   29 1
  30   18   20 ar
  31   18   30 1
  32   19   21 ar
  33   19   31 1
  34   20   21 ar
  35   20   32 1
  36   21   33 1

#	End of record

#	Name: 6223846
#	Creating user name:	landrgr1
#	Creation time:	28. 01. 2015 13:52

#	Modifying user name:	landrgr1
#	Modification time:	28. 01. 2015 13:52

#	Program:	corina 3.48 0006  22.01.2010

@<TRIPOS>MOLECULE
6223846
  37   39    0    0    0
SMALL
NO_CHARGES


@<TRIPOS>ATOM
   1 Cl1           -0.4471     4.3413     0.1318 Cl      
   2 Cl2           -2.5155    -3.0541     0.7674 Cl      
   3 O3             3.5961    -0.3366     0.2677 O.2     
   4 N4             0.0022     1.3811     0.3231 N.pl3   
   5 N5             2.3525     1.5087     0.1964 N.2     
   6 C6             0.0286     0.0026     0.4214 C.ar    
   7 C7             1.2754    -0.6481     0.4062 C.ar    
   8 C8             2.0611     8.5041     0.1732 C.ar    
   9 C9             2.1702     5.7384     0.0625 C.ar    
  10 C10            2.0018    10.0087     0.2334 C.3     
  11 C11            1.1660     2.0854     0.2143 C.2     
  12 C12            1.1612     7.7498     0.9059 C.ar    
  13 C13            3.0116     7.8838    -0.6190 C.ar    
  14 C14            1.2091     6.3727     0.8561 C.ar    
  15 C15            3.0723     6.5077    -0.6794 C.ar    
  16 C16           -1.1354    -0.7443     0.5328 C.ar    
  17 C17            2.2282     4.2690     0.0037 C.2     
  18 C18            1.0949     3.5440     0.1125 C.2     
  19 C19            1.3378    -2.0364     0.5029 C.ar    
  20 C20            2.4906     0.1784     0.2860 C.2     
  21 C21           -1.0591    -2.1197     0.6279 C.ar    
  22 C22            0.1721    -2.7625     0.6130 C.ar    
  23 C23            2.8967    10.5094     1.3688 C.3     
  24 H24            2.3486    10.4242    -0.7128 H       
  25 H25            0.9744    10.3249     0.4141 H       
  26 H26           -0.8472     1.8495     0.3276 H       
  27 H27            0.4199     8.2412     1.5185 H       
  28 H28            3.7073     8.4793    -1.1915 H       
  29 H29            0.5090     5.7855     1.4318 H       
  30 H30            3.8174     6.0251    -1.2945 H       
  31 H31           -2.0967    -0.2522     0.5455 H       
  32 H32            3.1775     3.7708    -0.1265 H       
  33 H33            2.2932    -2.5400     0.4913 H       
  34 H34            0.2158    -3.8390     0.6879 H       
  35 H35            2.8538    11.5977     1.4124 H       
  36 H36            2.5499    10.0940     2.3150 H       
  37 H37            3.9241    10.1933     1.1880 H       
@<TRIPOS>BOND
   1    1   18 1
   2    2   21 1
   3    3   20 2
   4    4    6 1
   5    4   11 1
   6    4   26 1
   7    5   11 2
   8    5   20 1
   9    6    7 ar
  10    6   16 ar
  11    7   19 ar
  12    7   20 1
  13    8   10 1
  14    8   12 ar
  15    8   13 ar
  16    9   14 ar
  17    9   15 ar
  18    9   17 1
  19   10   23 1
  20   10   24 1
  21   10   25 1
  22   11   18 1
  23   12   14 ar
  24   12   27 1
  25   13   15 ar
  26   13   28 1
  27   14   29 1
  28   15   30 1
  29   16   21 ar
  30   16   31 1
  31   17   18 2
  32   17   32 1
  33   19   22 ar
  34   19   33 1
  35   21   22 ar
  36   22   34 1
  37   23   35 1
  38   23   36 1
  39   23   37 1

#	End of record

#	Name: 6216119
#	Creating user name:	landrgr1
#	Creation time:	28. 01. 2015 13:52

#	Modifying user name:	landrgr1
#	Modification time:	28. 01. 2015 13:52

#	Program:	corina 3.48 0006  22.01.2010

@<TRIPOS>MOLECULE
6216119
  47   49    0    0    0
SMALL
NO_CHARGES


@<TRIPOS>ATOM
   1 S1            -0.0172     1.4168     0.0098 S.o2    
   2 S2            -0.3765    12.7825    -5.3498 S.3     
   3 O3             0.0021    -0.0041     0.0020 O.2     
   4 O4             1.2052     2.1412     0.0021 O.2     
   5 O5            -0.8872     4.8387    -1.2796 O.2     
   6 O6            -1.5035     6.9714    -2.6651 O.3     
   7 O7            -2.9148     8.1936    -3.8703 O.2     
   8 N8            -2.8172     3.7576    -1.4486 N.am    
   9 N9             1.0837    11.2673    -3.9676 N.2     
  10 C10           -2.3112     2.6382    -0.6505 C.3     
  11 C11           -1.0856     2.0160    -1.3486 C.3     
  12 C12           -1.8816     3.1445     0.7440 C.3     
  13 C13           -1.0615     2.0025     1.3976 C.3     
  14 C14           -4.1877     3.7283    -1.9655 C.3     
  15 C15           -2.0218     4.8144    -1.7074 C.2     
  16 C16           -5.1319     4.3642    -0.9432 C.3     
  17 C17           -2.5422     5.9660    -2.5285 C.3     
  18 C18           -1.8097     8.0753    -3.3773 C.2     
  19 C19           -0.8109     9.1314    -3.5567 C.2     
  20 C20           -1.1173    10.2362    -4.2694 C.2     
  21 C21            1.2682    13.3003    -4.9882 C.ar    
  22 C22            1.8841    12.3055    -4.2140 C.ar    
  23 C23           -0.1162    11.2947    -4.4492 C.2     
  24 C24            1.9682    14.4548    -5.3361 C.ar    
  25 C25            3.2227    12.5097    -3.8036 C.ar    
  26 C26            3.2691    14.6232    -4.9205 C.ar    
  27 C27            3.8872    13.6431    -4.1545 C.ar    
  28 H28           -3.0914     1.8850    -0.5397 H       
  29 H29           -0.5624     2.7695    -1.9374 H       
  30 H30           -1.3929     1.1848    -1.9832 H       
  31 H31           -1.2625     4.0358     0.6431 H       
  32 H32           -2.7615     3.3670     1.3477 H       
  33 H33           -1.7183     1.2071     1.7499 H       
  34 H34           -0.4450     2.3854     2.2109 H       
  35 H35           -4.2353     4.2865    -2.9005 H       
  36 H36           -4.4869     2.6954    -2.1433 H       
  37 H37           -6.1516     4.3424    -1.3278 H       
  38 H38           -5.0842     3.8060    -0.0082 H       
  39 H39           -4.8326     5.3971    -0.7654 H       
  40 H40           -3.4085     6.4037    -2.0324 H       
  41 H41           -2.8320     5.6065    -3.5158 H       
  42 H42            0.1707     9.0263    -3.1187 H       
  43 H43           -2.0989    10.3413    -4.7073 H       
  44 H44            1.4893    15.2173    -5.9326 H       
  45 H45            3.7204    11.7599    -3.2066 H       
  46 H46            3.8104    15.5177    -5.1909 H       
  47 H47            4.9086    13.7833    -3.8328 H       
@<TRIPOS>BOND
   1    1    3 2
   2    1    4 2
   3    1   11 1
   4    1   13 1
   5    2   21 1
   6    2   23 1
   7    5   15 2
   8    6   17 1
   9    6   18 1
  10    7   18 2
  11    8   10 1
  12    8   14 1
  13    8   15 am
  14    9   22 1
  15    9   23 2
  16   10   11 1
  17   10   12 1
  18   10   28 1
  19   11   29 1
  20   11   30 1
  21   12   13 1
  22   12   31 1
  23   12   32 1
  24   13   33 1
  25   13   34 1
  26   14   16 1
  27   14   35 1
  28   14   36 1
  29   15   17 1
  30   16   37 1
  31   16   38 1
  32   16   39 1
  33   17   40 1
  34   17   41 1
  35   18   19 1
  36   19   20 2
  37   19   42 1
  38   20   23 1
  39   20   43 1
  40   21   22 ar
  41   21   24 ar
  42   22   25 ar
  43   24   26 ar
  44   24   44 1
  45   25   27 ar
  46   25   45 1
  47   26   27 ar
  48   26   46 1
  49   27   47 1

#	End of record

#	Name: 6216024
#	Creating user name:	landrgr1
#	Creation time:	28. 01. 2015 13:52

#	Modifying user name:	landrgr1
#	Modification time:	28. 01. 2015 13:52

#	Program:	corina 3.48 0006  22.01.2010

@<TRIPOS>MOLECULE
6216024
  41   44    0    0    0
SMALL
NO_CHARGES


@<TRIPOS>ATOM
   1 S1             0.0002     1.7720     0.7883 S.3     
   2 O2             3.7054     2.9341    -0.0239 O.2     
   3 O3             3.9157     8.1511    -0.2420 O.2     
   4 N4             1.9204     4.2320     0.2349 N.am    
   5 N5             2.6764     5.3885     0.0034 N.pl3   
   6 N6             1.7551     8.8284    -0.2659 N.2     
   7 C7             0.2594    -2.7020     0.6121 C.3     
   8 C8            -0.7501    -2.1746     1.6358 C.3     
   9 C9             1.5660    -1.9170     0.7435 C.3     
  10 C10           -1.2124    -0.7796     1.2069 C.3     
  11 C11            1.2499    -0.4275     0.6990 C.2     
  12 C12            0.0092     0.0686     0.9073 C.2     
  13 C13            0.5262    -4.1855     0.8748 C.3     
  14 C14            2.2048     0.5392     0.4424 C.2     
  15 C15            1.7223     1.8119     0.4468 C.2     
  16 C16            2.5133     3.0220     0.2046 C.2     
  17 C17            2.0709     6.5753    -0.0857 C.2     
  18 C18            0.6787     6.8347    -0.0869 C.2     
  19 C19            0.5260     8.2412    -0.2001 C.2     
  20 C20            2.7193     7.9277    -0.2059 C.2     
  21 C21           -0.4501     6.0108    -0.0031 C.2     
  22 C22           -0.7580     8.7786    -0.2264 C.2     
  23 C23           -1.7112     6.5730    -0.0333 C.2     
  24 C24           -1.8625     7.9460    -0.1429 C.2     
  25 H25           -0.1421    -2.5760    -0.3934 H       
  26 H26           -1.6083    -2.8451     1.6806 H       
  27 H27           -0.2786    -2.1174     2.6169 H       
  28 H28            2.0454    -2.1616     1.6914 H       
  29 H29            2.2309    -2.1735    -0.0813 H       
  30 H30           -1.8308    -0.8584     0.3128 H       
  31 H31           -1.7870    -0.3214     2.0119 H       
  32 H32           -0.4060    -4.7435     0.7862 H       
  33 H33            1.2447    -4.5601     0.1459 H       
  34 H34            0.9298    -4.3096     1.8797 H       
  35 H35            3.2424     0.3050     0.2556 H       
  36 H36            0.9702     4.3020     0.4171 H       
  37 H37            3.6397     5.3272    -0.0923 H       
  38 H38           -0.3352     4.9404     0.0830 H       
  39 H39           -0.8935     9.8467    -0.3117 H       
  40 H40           -2.5837     5.9397     0.0308 H       
  41 H41           -2.8544     8.3728    -0.1642 H       
@<TRIPOS>BOND
   1    1   12 1
   2    1   15 1
   3    2   16 2
   4    3   20 2
   5    4    5 1
   6    4   16 am
   7    4   36 1
   8    5   17 1
   9    5   37 1
  10    6   19 2
  11    6   20 1
  12    7    8 1
  13    7    9 1
  14    7   13 1
  15    7   25 1
  16    8   10 1
  17    8   26 1
  18    8   27 1
  19    9   11 1
  20    9   28 1
  21    9   29 1
  22   10   12 1
  23   10   30 1
  24   10   31 1
  25   11   12 2
  26   11   14 1
  27   13   32 1
  28   13   33 1
  29   13   34 1
  30   14   15 2
  31   14   35 1
  32   15   16 1
  33   17   18 2
  34   17   20 1
  35   18   19 1
  36   18   21 1
  37   19   22 1
  38   21   23 2
  39   21   38 1
  40   22   24 2
  41   22   39 1
  42   23   24 1
  43   23   40 1
  44   24   41 1

#	End of record

#	Name: 6211763
#	Creating user name:	landrgr1
#	Creation time:	28. 01. 2015 13:52

#	Modifying user name:	landrgr1
#	Modification time:	28. 01. 2015 13:52

#	Program:	corina 3.48 0006  22.01.2010

@<TRIPOS>MOLECULE
6211763
  54   56    0    0    0
SMALL
NO_CHARGES


@<TRIPOS>ATOM
   1 S1             4.4557     5.0740     1.8537 S.2     
   2 F2            13.9475     0.3442     0.9721 F       
   3 O3             2.0639     1.6603    -0.2125 O.2     
   4 O4             6.7112     4.3333     2.0950 O.2     
   5 N5            -0.1556     1.7192    -0.2757 N.am    
   6 N6             3.5400     3.6931    -0.2223 N.am    
   7 N7             5.7557     3.2816     0.3867 N.am    
   8 C8            -0.2342     0.2617    -0.4021 C.3     
   9 C9            -1.5850    -0.2240     0.1272 C.3     
  10 C10           -0.0921    -0.1309    -1.8740 C.3     
  11 C11           -1.6671    -1.7461    -0.0049 C.3     
  12 C12           -0.1741    -1.6530    -2.0061 C.3     
  13 C13           -1.5250    -2.1387    -1.4768 C.3     
  14 C14            1.0455     2.3241    -0.1873 C.2     
  15 C15            1.1246     3.7915    -0.0600 C.ar    
  16 C16            2.3711     4.4357    -0.0813 C.ar    
  17 C17           -0.0409     4.5486     0.0767 C.ar    
  18 C18            2.4326     5.8175     0.0394 C.ar    
  19 C19            0.0397     5.9194     0.1952 C.ar    
  20 C20            1.2722     6.5518     0.1801 C.ar    
  21 C21            4.5936     3.9355     0.5825 C.2     
  22 C22            6.8093     3.5240     1.1915 C.2     
  23 C23           10.3934     2.3439     1.5711 C.ar    
  24 C24            8.0701     2.8147     0.9789 C.2     
  25 C25            9.1252     3.0574     1.7849 C.2     
  26 C26           11.4890     2.5932     2.4048 C.ar    
  27 C27           10.5077     1.4086     0.5368 C.ar    
  28 C28           12.6741     1.9210     2.1994 C.ar    
  29 C29           11.6984     0.7433     0.3423 C.ar    
  30 C30           12.7824     0.9993     1.1687 C.ar    
  31 H31            0.5685    -0.1969     0.1754 H       
  32 H32           -1.6863     0.0557     1.1758 H       
  33 H33           -2.3877     0.2346    -0.4503 H       
  34 H34           -0.8948     0.3277    -2.4515 H       
  35 H35            0.8703     0.2151    -2.2511 H       
  36 H36           -0.8644    -2.2047     0.5726 H       
  37 H37           -2.6295    -2.0921     0.3722 H       
  38 H38           -0.0729    -1.9327    -3.0547 H       
  39 H39            0.6285    -2.1116    -1.4286 H       
  40 H40           -1.5835    -3.2231    -1.5708 H       
  41 H41           -2.3277    -1.6801    -2.0543 H       
  42 H42           -0.9679     2.2491    -0.2596 H       
  43 H43           -1.0043     4.0606     0.0891 H       
  44 H44            3.3894     6.3183     0.0237 H       
  45 H45           -0.8626     6.5036     0.3005 H       
  46 H46            3.5963     3.0011    -0.8997 H       
  47 H47            1.3252     7.6264     0.2743 H       
  48 H48            5.8338     2.6366    -0.3336 H       
  49 H49            8.1571     2.0965     0.1771 H       
  50 H50            9.0382     3.7756     2.5868 H       
  51 H51           11.4062     3.3112     3.2073 H       
  52 H52            9.6643     1.2083    -0.1074 H       
  53 H53           13.5206     2.1124     2.8422 H       
  54 H54           11.7880     0.0211    -0.4557 H       
@<TRIPOS>BOND
   1    1   21 2
   2    2   30 1
   3    3   14 2
   4    4   22 2
   5    5    8 1
   6    5   14 am
   7    5   42 1
   8    6   16 1
   9    6   21 am
  10    6   46 1
  11    7   21 am
  12    7   22 am
  13    7   48 1
  14    8    9 1
  15    8   10 1
  16    8   31 1
  17    9   11 1
  18    9   32 1
  19    9   33 1
  20   10   12 1
  21   10   34 1
  22   10   35 1
  23   11   13 1
  24   11   36 1
  25   11   37 1
  26   12   13 1
  27   12   38 1
  28   12   39 1
  29   13   40 1
  30   13   41 1
  31   14   15 1
  32   15   16 ar
  33   15   17 ar
  34   16   18 ar
  35   17   19 ar
  36   17   43 1
  37   18   20 ar
  38   18   44 1
  39   19   20 ar
  40   19   45 1
  41   20   47 1
  42   22   24 1
  43   23   25 1
  44   23   26 ar
  45   23   27 ar
  46   24   25 2
  47   24   49 1
  48   25   50 1
  49   26   28 ar
  50   26   51 1
  51   27   29 ar
  52   27   52 1
  53   28   30 ar
  54   28   53 1
  55   29   30 ar
  56   29   54 1

#	End of record

#	Name: 6187213
#	Creating user name:	landrgr1
#	Creation time:	28. 01. 2015 13:52

#	Modifying user name:	landrgr1
#	Modification time:	28. 01. 2015 13:52

#	Program:	corina 3.48 0006  22.01.2010

@<TRIPOS>MOLECULE
6187213
  35   37    0    0    0
SMALL
NO_CHARGES


@<TRIPOS>ATOM
   1 S1             1.2942    -2.8505    -8.9997 S.2     
   2 O2            -0.0438     1.0767     0.1712 O.3     
   3 O3             6.1881    -3.0575    -8.1674 O.2     
   4 N4             2.0994    -0.1576    -1.1596 N.3     
   5 N5             3.0351    -2.1703    -7.0369 N.am    
   6 N6             3.9855    -3.0866    -8.8148 N.am    
   7 C7             0.7647    -0.7739    -1.1538 C.3     
   8 C8             1.9969     1.3077    -1.1000 C.3     
   9 C9             0.0188    -0.3510     0.1146 C.3     
  10 C10            1.2386     1.7097     0.1678 C.3     
  11 C11            2.8306    -0.5617    -2.2731 C.ar    
  12 C12            4.1255    -0.0867    -2.4628 C.ar    
  13 C13            2.2667    -1.4440    -3.1908 C.ar    
  14 C14            4.2841    -1.3647    -4.4872 C.ar    
  15 C15            4.8493    -0.4816    -3.5583 C.ar    
  16 C16            2.9833    -1.8451    -4.2888 C.ar    
  17 C17            5.0549    -1.7904    -5.6617 C.2     
  18 C18            4.4110    -2.2174    -6.7779 C.2     
  19 C19            5.0081    -2.8290    -7.9745 C.2     
  20 C20            2.8290    -2.6968    -8.2570 C.2     
  21 H21            0.2076    -0.4440    -2.0307 H       
  22 H22            0.8648    -1.8591    -1.1724 H       
  23 H23            2.9964     1.7420    -1.0795 H       
  24 H24            1.4595     1.6709    -1.9761 H       
  25 H25            0.5477    -0.7272     0.9903 H       
  26 H26           -0.9917    -0.7592     0.0957 H       
  27 H27            1.1103     2.7920     0.1874 H       
  28 H28            1.8030     1.3935     1.0451 H       
  29 H29            4.5604     0.5941    -1.7460 H       
  30 H30            1.2635    -1.8133    -3.0373 H       
  31 H31            5.8534    -0.1120    -3.7049 H       
  32 H32            2.5453    -2.5301    -4.9997 H       
  33 H33            6.1343    -1.7640    -5.6377 H       
  34 H34            2.3526    -1.8237    -6.4410 H       
  35 H35            4.0728    -3.4926    -9.6914 H       
@<TRIPOS>BOND
   1    1   20 2
   2    2    9 1
   3    2   10 1
   4    3   19 2
   5    4    7 1
   6    4    8 1
   7    4   11 1
   8    5   18 1
   9    5   20 am
  10    5   34 1
  11    6   19 am
  12    6   20 am
  13    6   35 1
  14    7    9 1
  15    7   21 1
  16    7   22 1
  17    8   10 1
  18    8   23 1
  19    8   24 1
  20    9   25 1
  21    9   26 1
  22   10   27 1
  23   10   28 1
  24   11   12 ar
  25   11   13 ar
  26   12   15 ar
  27   12   29 1
  28   13   16 ar
  29   13   30 1
  30   14   15 ar
  31   14   16 ar
  32   14   17 1
  33   15   31 1
  34   16   32 1
  35   17   18 2
  36   17   33 1
  37   18   19 1

#	End of record

#	Name: 6183860
#	Creating user name:	landrgr1
#	Creation time:	28. 01. 2015 13:52

#	Modifying user name:	landrgr1
#	Modification time:	28. 01. 2015 13:52

#	Program:	corina 3.48 0006  22.01.2010

@<TRIPOS>MOLECULE
6183860
  27   27    0    0    0
SMALL
NO_CHARGES


@<TRIPOS>ATOM
   1 F1             1.9569     1.6615    -1.1501 F       
   2 F2             1.9787     1.6492     1.1344 F       
   3 F3             1.0458     3.4058     0.0104 F       
   4 F4            -8.0080    -0.4288     1.2199 F       
   5 F5            -8.0302    -0.4159    -1.0646 F       
   6 F6            -7.0586     1.3074     0.0781 F       
   7 O7            -0.0164     1.3555     0.0095 O.3     
   8 O8            -5.9536    -2.0189     0.0485 O.2     
   9 N9            -2.4177    -0.0398     0.0253 N.pl3   
  10 C10           -1.1944    -0.7191     0.0096 C.ar    
  11 C11            0.0021    -0.0041     0.0020 C.ar    
  12 C12           -1.1689    -2.1062     0.0072 C.ar    
  13 C13            1.2097    -0.6819    -0.0136 C.ar    
  14 C14            0.0408    -2.7748    -0.0089 C.ar    
  15 C15            1.2269    -2.0648    -0.0221 C.ar    
  16 C16           -3.5865    -0.7409     0.0327 C.2     
  17 C17           -4.7719    -0.0827     0.0480 C.2     
  18 C18           -5.9739    -0.8037     0.0556 C.2     
  19 C19            1.2479     2.0215     0.0010 C.3     
  20 C20           -7.2913    -0.0722     0.0726 C.3     
  21 H21           -2.0940    -2.6635     0.0179 H       
  22 H22           -2.4339     0.9300     0.0310 H       
  23 H23            2.1383    -0.1305    -0.0195 H       
  24 H24            0.0594    -3.8546    -0.0104 H       
  25 H25            2.1696    -2.5915    -0.0350 H       
  26 H26           -3.5685    -1.8208     0.0264 H       
  27 H27           -4.7899     0.9972     0.0543 H       
@<TRIPOS>BOND
   1    1   19 1
   2    2   19 1
   3    3   19 1
   4    4   20 1
   5    5   20 1
   6    6   20 1
   7    7   11 1
   8    7   19 1
   9    8   18 2
  10    9   10 1
  11    9   16 1
  12    9   22 1
  13   10   11 ar
  14   10   12 ar
  15   11   13 ar
  16   12   14 ar
  17   12   21 1
  18   13   15 ar
  19   13   23 1
  20   14   15 ar
  21   14   24 1
  22   15   25 1
  23   16   17 2
  24   16   26 1
  25   17   18 1
  26   17   27 1
  27   18   20 1

#	End of record

#	Name: 6181907
#	Creating user name:	landrgr1
#	Creation time:	28. 01. 2015 13:52

#	Modifying user name:	landrgr1
#	Modification time:	28. 01. 2015 13:52

#	Program:	corina 3.48 0006  22.01.2010

@<TRIPOS>MOLECULE
6181907
  44   46    0    0    0
SMALL
NO_CHARGES


@<TRIPOS>ATOM
   1 S1            -0.0172     1.4168     0.0098 S.o2    
   2 S2            -3.7819     8.1718     8.9847 S.2     
   3 O3             0.0021    -0.0041     0.0020 O.2     
   4 O4             1.1617     2.2101     0.0028 O.2     
   5 O5            -2.7954     6.7737     6.8789 O.2     
   6 N6            -0.9002     1.8797    -1.3124 N.am    
   7 N7            -3.0861     3.0223     4.8161 N.pl3   
   8 N8            -2.9018     4.1867     5.3399 N.2     
   9 N9            -4.3889     5.7219     8.1575 N.am    
  10 N10           -5.0181     4.4779     8.1274 N.2     
  11 N11           -5.5374     6.4822    10.0422 N.am    
  12 C12           -0.8028     3.1776    -1.9962 C.3     
  13 C13           -1.9096     1.0563    -2.0027 C.3     
  14 C14           -1.8279     3.1659    -3.1497 C.3     
  15 C15           -2.8408     2.0762    -2.7045 C.3     
  16 C16           -0.9297     1.8941     1.4396 C.ar    
  17 C17           -1.8431     1.0191     1.9989 C.ar    
  18 C18           -0.7266     3.1408     2.0030 C.ar    
  19 C19           -2.5603     1.3898     3.1190 C.ar    
  20 C20           -1.4394     3.5183     3.1237 C.ar    
  21 C21           -2.3630     2.6440     3.6848 C.ar    
  22 C22           -3.5863     4.5448     6.4110 C.2     
  23 C23           -4.5928     3.7550     7.1379 C.2     
  24 C24           -3.5089     5.8218     7.1405 C.2     
  25 C25           -5.0466     2.3594     6.7953 C.3     
  26 C26           -4.6295     6.6867     9.0673 C.2     
  27 H27           -1.0380     3.9822    -1.2994 H       
  28 H28            0.2026     3.3119    -2.3951 H       
  29 H29           -1.4325     0.4093    -2.7387 H       
  30 H30           -2.4720     0.4625    -1.2821 H       
  31 H31           -2.3168     4.1358    -3.2410 H       
  32 H32           -1.3497     2.8840    -4.0877 H       
  33 H33           -3.3335     1.6266    -3.5666 H       
  34 H34           -3.5725     2.4821    -2.0060 H       
  35 H35           -1.9957     0.0447     1.5588 H       
  36 H36           -0.0093     3.8198     1.5661 H       
  37 H37           -3.2739     0.7062     3.5548 H       
  38 H38           -1.2798     4.4917     3.5635 H       
  39 H39           -3.7274     2.4098     5.2090 H       
  40 H40           -5.8006     2.0361     7.5130 H       
  41 H41           -5.4730     2.3520     5.7922 H       
  42 H42           -4.1945     1.6807     6.8330 H       
  43 H43           -5.7106     7.1766    10.6970 H       
  44 H44           -6.0176     5.6408    10.0890 H       
@<TRIPOS>BOND
   1    1    3 2
   2    1    4 2
   3    1    6 am
   4    1   16 1
   5    2   26 2
   6    5   24 2
   7    6   12 1
   8    6   13 1
   9    7    8 1
  10    7   21 1
  11    7   39 1
  12    8   22 2
  13    9   10 1
  14    9   24 am
  15    9   26 am
  16   10   23 2
  17   11   26 am
  18   11   43 1
  19   11   44 1
  20   12   14 1
  21   12   27 1
  22   12   28 1
  23   13   15 1
  24   13   29 1
  25   13   30 1
  26   14   15 1
  27   14   31 1
  28   14   32 1
  29   15   33 1
  30   15   34 1
  31   16   17 ar
  32   16   18 ar
  33   17   19 ar
  34   17   35 1
  35   18   20 ar
  36   18   36 1
  37   19   21 ar
  38   19   37 1
  39   20   21 ar
  40   20   38 1
  41   22   23 1
  42   22   24 1
  43   23   25 1
  44   25   40 1
  45   25   41 1
  46   25   42 1

#	End of record

#	Name: 6181255
#	Creating user name:	landrgr1
#	Creation time:	28. 01. 2015 13:52

#	Modifying user name:	landrgr1
#	Modification time:	28. 01. 2015 13:52

#	Program:	corina 3.48 0006  22.01.2010

@<TRIPOS>MOLECULE
6181255
  36   38    0    0    0
SMALL
NO_CHARGES


@<TRIPOS>ATOM
   1 Cl1            2.0266     4.3188    -1.2639 Cl      
   2 S2             0.3586     1.4310    -1.4593 S.3     
   3 N3             6.5178     7.7686     0.9338 N.pl3   
   4 N4             2.3598     0.4497    -0.2865 N.2     
   5 C5             5.8745     6.5558     0.6920 C.ar    
   6 C6             4.5952     4.1441     0.2106 C.ar    
   7 C7             6.6133     5.4457     0.2946 C.ar    
   8 C8             4.4961     6.4570     0.8546 C.ar    
   9 C9             5.9818     4.2461     0.0543 C.ar    
  10 C10            3.8568     5.2611     0.6163 C.ar    
  11 C11            0.3576    -0.2929    -1.0959 C.ar    
  12 C12            1.5591    -0.6095    -0.4493 C.ar    
  13 C13            3.9162     2.8642    -0.0451 C.2     
  14 C14            1.9487     1.5957    -0.7268 C.2     
  15 C15            2.7009     2.8506    -0.6286 C.2     
  16 C16            7.9795     7.8467     0.8761 C.3     
  17 C17            5.7320     8.9650     1.2458 C.3     
  18 C18           -0.5897    -1.2837    -1.3439 C.ar    
  19 C19            1.7771    -1.9502    -0.0607 C.ar    
  20 C20           -0.3481    -2.5822    -0.9533 C.ar    
  21 C21            0.8391    -2.9044    -0.3115 C.ar    
  22 H22            7.6836     5.5254     0.1738 H       
  23 H23            3.9269     7.3199     1.1674 H       
  24 H24            6.5554     3.3861    -0.2584 H       
  25 H25            2.7863     5.1867     0.7378 H       
  26 H26            4.3913     1.9356     0.2347 H       
  27 H27            8.2904     8.0931    -0.1392 H       
  28 H28            8.3295     8.6192     1.5608 H       
  29 H29            8.4064     6.8858     1.1636 H       
  30 H30            4.6794     8.6960     1.3327 H       
  31 H31            6.0772     9.3909     2.1879 H       
  32 H32            5.8550     9.6984     0.4489 H       
  33 H33           -1.5144    -1.0335    -1.8425 H       
  34 H34            2.6956    -2.2203     0.4391 H       
  35 H35           -1.0833    -3.3496    -1.1457 H       
  36 H36            1.0217    -3.9247    -0.0081 H       
@<TRIPOS>BOND
   1    1   15 1
   2    2   11 1
   3    2   14 1
   4    3    5 1
   5    3   16 1
   6    3   17 1
   7    4   12 1
   8    4   14 2
   9    5    7 ar
  10    5    8 ar
  11    6    9 ar
  12    6   10 ar
  13    6   13 1
  14    7    9 ar
  15    7   22 1
  16    8   10 ar
  17    8   23 1
  18    9   24 1
  19   10   25 1
  20   11   12 ar
  21   11   18 ar
  22   12   19 ar
  23   13   15 2
  24   13   26 1
  25   14   15 1
  26   16   27 1
  27   16   28 1
  28   16   29 1
  29   17   30 1
  30   17   31 1
  31   17   32 1
  32   18   20 ar
  33   18   33 1
  34   19   21 ar
  35   19   34 1
  36   20   21 ar
  37   20   35 1
  38   21   36 1

#	End of record

#	Name: 6177940
#	Creating user name:	landrgr1
#	Creation time:	28. 01. 2015 13:52

#	Modifying user name:	landrgr1
#	Modification time:	28. 01. 2015 13:52

#	Program:	corina 3.48 0006  22.01.2010

@<TRIPOS>MOLECULE
6177940
  45   48    0    0    0
SMALL
NO_CHARGES


@<TRIPOS>ATOM
   1 S1             0.0628     1.7819    -0.0832 S.3     
   2 S2            -1.3260    -1.0035    -0.0626 S.2     
   3 O3             1.1697    -2.3067    -2.3472 O.2     
   4 O4            -0.5566    -4.2833     1.3109 O.2     
   5 O5             3.4746     0.2259    -0.0322 O.2     
   6 N6             1.3325    -0.3846    -0.0448 N.am    
   7 N7             0.1554    -3.4579    -0.6775 N.am    
   8 C8             1.6645    -1.8113    -0.0247 C.3     
   9 C9             1.0733    -2.4886     1.2284 C.3     
  10 C10            0.9874    -2.5319    -1.1701 C.2     
  11 C11            0.1243    -3.5207     0.6594 C.2     
  12 C12           -0.6237    -4.2894    -1.4944 C.ar    
  13 C13            2.2941     0.5233    -0.0471 C.2     
  14 C14            0.0539     0.0097    -0.0615 C.2     
  15 C15            1.8327     1.9143    -0.0685 C.2     
  16 C16           -1.6457    -3.7493    -2.2632 C.ar    
  17 C17           -0.3708    -5.6537    -1.5405 C.ar    
  18 C18            2.5894     3.0496    -0.0758 C.2     
  19 C19           -2.4112    -4.5709    -3.0674 C.ar    
  20 C20           -1.1397    -6.4703    -2.3466 C.ar    
  21 C21           -2.1604    -5.9301    -3.1072 C.ar    
  22 C22            1.9649     4.3124    -0.0970 C.2     
  23 C23            2.7159     5.4391    -0.1043 C.2     
  24 C24            2.0642     6.7568    -0.1265 C.ar    
  25 C25            2.8367     7.9236    -0.1341 C.ar    
  26 C26            0.6681     6.8509    -0.1459 C.ar    
  27 C27            2.2178     9.1553    -0.1554 C.ar    
  28 C28            0.0649     8.0903    -0.1671 C.ar    
  29 C29            0.8362     9.2397    -0.1687 C.ar    
  30 H30            2.7445    -1.9532    -0.0641 H       
  31 H31            1.8589    -2.9698     1.8111 H       
  32 H32            0.5322    -1.7640     1.8369 H       
  33 H33           -1.8422    -2.6878    -2.2322 H       
  34 H34            0.4264    -6.0760    -0.9469 H       
  35 H35            3.6671     2.9803    -0.0654 H       
  36 H36           -3.2066    -4.1513    -3.6654 H       
  37 H37           -0.9433    -7.5316    -2.3831 H       
  38 H38           -2.7603    -6.5706    -3.7367 H       
  39 H39            0.8872     4.3818    -0.1075 H       
  40 H40            3.7936     5.3698    -0.0939 H       
  41 H41            3.9147     7.8594    -0.1230 H       
  42 H42            0.0649     5.9550    -0.1447 H       
  43 H43            2.8125    10.0568    -0.1612 H       
  44 H44           -1.0125     8.1647    -0.1825 H       
  45 H45            0.3575    10.2077    -0.1850 H       
@<TRIPOS>BOND
   1    1   14 1
   2    1   15 1
   3    2   14 2
   4    3   10 2
   5    4   11 2
   6    5   13 2
   7    6    8 1
   8    6   13 am
   9    6   14 am
  10    7   10 am
  11    7   11 am
  12    7   12 1
  13    8    9 1
  14    8   10 1
  15    8   30 1
  16    9   11 1
  17    9   31 1
  18    9   32 1
  19   12   16 ar
  20   12   17 ar
  21   13   15 1
  22   15   18 2
  23   16   19 ar
  24   16   33 1
  25   17   20 ar
  26   17   34 1
  27   18   22 1
  28   18   35 1
  29   19   21 ar
  30   19   36 1
  31   20   21 ar
  32   20   37 1
  33   21   38 1
  34   22   23 2
  35   22   39 1
  36   23   24 1
  37   23   40 1
  38   24   25 ar
  39   24   26 ar
  40   25   27 ar
  41   25   41 1
  42   26   28 ar
  43   26   42 1
  44   27   29 ar
  45   27   43 1
  46   28   29 ar
  47   28   44 1
  48   29   45 1

#	End of record

#	Name: 6177270
#	Creating user name:	landrgr1
#	Creation time:	28. 01. 2015 13:52

#	Modifying user name:	landrgr1
#	Modification time:	28. 01. 2015 13:52

#	Program:	corina 3.48 0006  22.01.2010

@<TRIPOS>MOLECULE
6177270
  25   25    0    0    0
SMALL
NO_CHARGES


@<TRIPOS>ATOM
   1 O1            -0.2817     3.9794     0.0250 O.2     
   2 O2             0.0021    -0.0041     0.0020 O.2     
   3 O3             1.0320     1.8371     0.0021 O.2     
   4 N4            -0.0144     1.2138     0.0087 N.pl3   
   5 N5            -3.8801     6.0336     0.0579 N.pl3   
   6 N6            -3.9505     7.4327     0.0715 N.2     
   7 N7            -6.2717     7.2798     0.0751 N.pl3   
   8 N8            -5.1831     9.4055     0.0932 N.pl3   
   9 C9            -2.6226     4.0243     0.0359 C.2     
  10 C10           -1.3259     3.3399     0.0265 C.2     
  11 C11           -1.3065     1.9366     0.0188 C.2     
  12 C12           -3.7963     3.2447     0.0372 C.2     
  13 C13           -2.4778     1.2393     0.0201 C.2     
  14 C14           -3.7081     1.8862     0.0294 C.2     
  15 C15           -2.6932     5.4258     0.0495 C.2     
  16 C16           -5.1138     8.0284     0.0798 C.2     
  17 H17           -4.7641     3.7240     0.0444 H       
  18 H18           -2.4492     0.1597     0.0141 H       
  19 H19           -4.6139     1.2981     0.0309 H       
  20 H20           -1.7862     6.0122     0.0532 H       
  21 H21           -4.6947     5.5070     0.0546 H       
  22 H22           -6.2229     6.3111     0.0656 H       
  23 H23           -7.1351     7.7219     0.0812 H       
  24 H24           -4.3685     9.9321     0.0965 H       
  25 H25           -6.0465     9.8476     0.0993 H       
@<TRIPOS>BOND
   1    1   10 2
   2    2    4 2
   3    3    4 2
   4    4   11 1
   5    5    6 1
   6    5   15 1
   7    5   21 1
   8    6   16 2
   9    7   16 1
  10    7   22 1
  11    7   23 1
  12    8   16 1
  13    8   24 1
  14    8   25 1
  15    9   10 1
  16    9   12 1
  17    9   15 2
  18   10   11 1
  19   11   13 2
  20   12   14 2
  21   12   17 1
  22   13   14 1
  23   13   18 1
  24   14   19 1
  25   15   20 1

#	End of record

#	Name: 6161775
#	Creating user name:	landrgr1
#	Creation time:	28. 01. 2015 13:52

#	Modifying user name:	landrgr1
#	Modification time:	28. 01. 2015 13:52

#	Program:	corina 3.48 0006  22.01.2010

@<TRIPOS>MOLECULE
6161775
  50   53    0    0    0
SMALL
NO_CHARGES


@<TRIPOS>ATOM
   1 Cl1           -5.3976     2.9029    -0.7293 Cl      
   2 S2            -0.1004     1.7409    -0.4474 S.3     
   3 O3            -0.9866    -4.8482     0.3260 O.2     
   4 O4             3.1016    -0.4055     1.3137 O.2     
   5 O5             2.1257     1.3649     0.7105 O.2     
   6 N6             1.1260    -4.9267    -0.3558 N.am    
   7 N7             3.0114    -6.2435    -1.9294 N.3     
   8 N8             3.0261    -7.7327    -3.7439 N.ar    
   9 N9             2.1500     0.1500     0.7948 N.pl3   
  10 C10            1.1435    -6.3974    -0.3532 C.3     
  11 C11            2.3621    -4.2167    -0.7180 C.3     
  12 C12            1.7086    -6.8798    -1.6934 C.3     
  13 C13            2.8792    -4.7850    -2.0438 C.3     
  14 C14            0.0054    -4.2477    -0.0400 C.2     
  15 C15            3.6302    -6.7774    -3.0538 C.ar    
  16 C16           -0.0177    -2.7763    -0.1383 C.ar    
  17 C17            4.8781    -6.3031    -3.4443 C.ar    
  18 C18            1.0497    -2.0239     0.3617 C.ar    
  19 C19           -1.1043    -2.1312    -0.7370 C.ar    
  20 C20            1.0229    -0.6512     0.2667 C.ar    
  21 C21            5.4823    -6.8430    -4.5656 C.ar    
  22 C22           -1.1254    -0.7688    -0.8284 C.ar    
  23 C23           -0.0659    -0.0166    -0.3264 C.ar    
  24 C24            3.5786    -8.2658    -4.8170 C.ar    
  25 C25            4.8155    -7.8427    -5.2610 C.ar    
  26 C26           -1.5504     2.0442    -1.4014 C.ar    
  27 C27           -2.7555     2.3201    -0.7677 C.ar    
  28 C28           -1.4898     2.0136    -2.7897 C.ar    
  29 C29           -3.8908     2.5579    -1.5194 C.ar    
  30 C30           -2.6275     2.2520    -3.5347 C.ar    
  31 C31           -3.8273     2.5209    -2.9015 C.ar    
  32 H32            1.7749    -6.7546     0.4603 H       
  33 H33            0.1291    -6.7754    -0.2262 H       
  34 H34            2.1533    -3.1530    -0.8321 H       
  35 H35            3.1106    -4.3643     0.0605 H       
  36 H36            1.0217    -6.6107    -2.4958 H       
  37 H37            1.8319    -7.9625    -1.6675 H       
  38 H38            3.8515    -4.3484    -2.2721 H       
  39 H39            2.1760    -4.5450    -2.8413 H       
  40 H40            5.3686    -5.5237    -2.8801 H       
  41 H41            1.8925    -2.5186     0.8214 H       
  42 H42           -1.9277    -2.7109    -1.1274 H       
  43 H43            6.4507    -6.4945    -4.8929 H       
  44 H44           -1.9657    -0.2731    -1.2916 H       
  45 H45            3.0565    -9.0435    -5.3547 H       
  46 H46            5.2597    -8.2847    -6.1406 H       
  47 H47           -2.8053     2.3484     0.3107 H       
  48 H48           -0.5534     1.8037    -3.2852 H       
  49 H49           -2.5805     2.2282    -4.6134 H       
  50 H50           -4.7158     2.7063    -3.4868 H       
@<TRIPOS>BOND
   1    1   29 1
   2    2   23 1
   3    2   26 1
   4    3   14 2
   5    4    9 2
   6    5    9 2
   7    6   10 1
   8    6   11 1
   9    6   14 am
  10    7   12 1
  11    7   13 1
  12    7   15 1
  13    8   15 ar
  14    8   24 ar
  15    9   20 1
  16   10   12 1
  17   10   32 1
  18   10   33 1
  19   11   13 1
  20   11   34 1
  21   11   35 1
  22   12   36 1
  23   12   37 1
  24   13   38 1
  25   13   39 1
  26   14   16 1
  27   15   17 ar
  28   16   18 ar
  29   16   19 ar
  30   17   21 ar
  31   17   40 1
  32   18   20 ar
  33   18   41 1
  34   19   22 ar
  35   19   42 1
  36   20   23 ar
  37   21   25 ar
  38   21   43 1
  39   22   23 ar
  40   22   44 1
  41   24   25 ar
  42   24   45 1
  43   25   46 1
  44   26   27 ar
  45   26   28 ar
  46   27   29 ar
  47   27   47 1
  48   28   30 ar
  49   28   48 1
  50   29   31 ar
  51   30   31 ar
  52   30   49 1
  53   31   50 1

#	End of record

#	Name: 6145648
#	Creating user name:	landrgr1
#	Creation time:	28. 01. 2015 13:52

#	Modifying user name:	landrgr1
#	Modification time:	28. 01. 2015 13:52

#	Program:	corina 3.48 0006  22.01.2010

@<TRIPOS>MOLECULE
6145648
  41   43    0    0    0
SMALL
NO_CHARGES


@<TRIPOS>ATOM
   1 S1            -0.0220     1.7688     0.0118 S.3     
   2 S2             4.4331    -1.1534    -0.0469 S.3     
   3 O3             3.4638    -6.2010    -1.2321 O.3     
   4 O4             1.5831    -4.0974     3.3465 O.2     
   5 N5             1.3267    -0.3442    -0.0125 N.pl3   
   6 N6             1.7423    -1.6821    -0.0241 N.pl3   
   7 N7            -1.0273    -0.8138     0.0079 N.2     
   8 C8             2.2281     0.6895    -0.0155 C.2     
   9 C9             0.0021    -0.0041     0.0020 C.2     
  10 C10            3.6796     0.4359    -0.0312 C.2     
  11 C11            1.7423     1.9381    -0.0042 C.2     
  12 C12            1.6650    -2.4185     1.0954 C.2     
  13 C13            2.0792    -3.7520     1.0838 C.2     
  14 C14            4.6375     1.3872    -0.0353 C.2     
  15 C15            2.5820    -4.3415    -0.0980 C.2     
  16 C16           -2.3873    -0.2695     0.0237 C.3     
  17 C17            2.0074    -4.5701     2.3006 C.2     
  18 C18            5.9298     0.9027    -0.0503 C.2     
  19 C19            2.9814    -5.6442    -0.0884 C.2     
  20 C20            6.0352    -0.4286    -0.0584 C.2     
  21 C21            2.4361    -5.9070     2.2401 C.2     
  22 C22            2.9057    -6.4196     1.0698 C.2     
  23 C23           -3.0999    -0.6395    -1.2787 C.3     
  24 C24            3.5193    -5.3632    -2.3884 C.3     
  25 H25            2.0858    -2.0762    -0.8411 H       
  26 H26            2.3087     2.8577    -0.0052 H       
  27 H27            1.2826    -1.9797     2.0051 H       
  28 H28            4.4107     2.4431    -0.0278 H       
  29 H29            2.6492    -3.7612    -1.0064 H       
  30 H30           -2.9355    -0.6860     0.8688 H       
  31 H31           -2.3434     0.8155     0.1183 H       
  32 H32            6.7924     1.5525    -0.0554 H       
  33 H33            6.9651    -0.9778    -0.0697 H       
  34 H34            2.3927    -6.5281     3.1225 H       
  35 H35            3.2316    -7.4488     1.0379 H       
  36 H36           -3.1438    -1.7245    -1.3733 H       
  37 H37           -4.1118    -0.2345    -1.2669 H       
  38 H38           -2.5517    -0.2230    -2.1237 H       
  39 H39            2.5159    -5.0147    -2.6330 H       
  40 H40            4.1622    -4.5066    -2.1859 H       
  41 H41            3.9220    -5.9293    -3.2283 H       
@<TRIPOS>BOND
   1    1    9 1
   2    1   11 1
   3    2   10 1
   4    2   20 1
   5    3   19 1
   6    3   24 1
   7    4   17 2
   8    5    6 1
   9    5    8 1
  10    5    9 1
  11    6   12 1
  12    6   25 1
  13    7    9 2
  14    7   16 1
  15    8   10 1
  16    8   11 2
  17   10   14 2
  18   11   26 1
  19   12   13 2
  20   12   27 1
  21   13   15 1
  22   13   17 1
  23   14   18 1
  24   14   28 1
  25   15   19 2
  26   15   29 1
  27   16   23 1
  28   16   30 1
  29   16   31 1
  30   17   21 1
  31   18   20 2
  32   18   32 1
  33   19   22 1
  34   20   33 1
  35   21   22 2
  36   21   34 1
  37   22   35 1
  38   23   36 1
  39   23   37 1
  40   23   38 1
  41   24   39 1
  42   24   40 1
  43   24   41 1

#	End of record

#	Name: 6100948
#	Creating user name:	landrgr1
#	Creation time:	28. 01. 2015 13:52

#	Modifying user name:	landrgr1
#	Modification time:	28. 01. 2015 13:52

#	Program:	corina 3.48 0006  22.01.2010

@<TRIPOS>MOLECULE
6100948
  69   73    0    0    0
SMALL
NO_CHARGES


@<TRIPOS>ATOM
   1 S1            -0.5642     2.0448     0.6162 S.3     
   2 S2             1.2287     7.0752     0.3849 S.3     
   3 O3             3.8149     0.1883     0.7948 O.3     
   4 O4             3.2759     0.2709    -1.3598 O.2     
   5 O5             0.1833     4.4873     0.5304 O.2     
   6 O6            -0.0480     9.5478    -1.5063 O.3     
   7 N7             1.8953     3.1392     0.1136 N.am    
   8 N8             2.2527     9.6714     0.2443 N.pl3   
   9 N9             4.3597     9.3406    -0.2189 N.pl3   
  10 N10            3.7125     8.1012    -0.1238 N.2     
  11 N11            3.2931    13.8795     0.0553 N.2     
  12 C12           -0.5336    -2.4812    -0.2013 C.3     
  13 C13           -1.3358    -2.8675     1.0394 C.3     
  14 C14            0.7433    -1.7604     0.2201 C.3     
  15 C15           -1.7338    -1.6124     1.8109 C.3     
  16 C16            0.4930    -0.2651     0.3137 C.2     
  17 C17           -1.9776    -0.4717     0.8242 C.3     
  18 C18           -0.6910     0.2909     0.5849 C.2     
  19 C19            1.5377     0.7279     0.1150 C.2     
  20 C20            1.0976     2.0141     0.2518 C.2     
  21 C21            2.9254     0.3826    -0.2004 C.2     
  22 C22            1.3615     4.3669     0.2694 C.2     
  23 C23            3.4377    10.2964     0.0064 C.2     
  24 C24            3.6599    11.6903    -0.0031 C.2     
  25 C25            0.9774    10.3301     0.5374 C.3     
  26 C26            2.2288     5.5902     0.1191 C.3     
  27 C27            2.4578     8.3168     0.1562 C.2     
  28 C28            4.9456    12.3897    -0.1301 C.ar    
  29 C29            4.6247    13.7673    -0.0840 C.ar    
  30 C30            0.2946    10.7257    -0.7734 C.3     
  31 C31            5.1727    -0.1514     0.4083 C.3     
  32 C32            2.7003    12.7088     0.1060 C.2     
  33 C33            6.2705    11.9853    -0.2718 C.ar    
  34 C34            5.6615    14.7053    -0.1834 C.ar    
  35 C35            7.2579    12.9259    -0.3660 C.ar    
  36 C36            6.0299    -0.3320     1.6627 C.3     
  37 C37            6.9506    14.2806    -0.3216 C.ar    
  38 C38           -0.6947     9.8071    -2.7540 C.3     
  39 H39           -0.2753    -3.3801    -0.7611 H       
  40 H40           -1.1322    -1.8218    -0.8298 H       
  41 H41           -2.2335    -3.4067     0.7369 H       
  42 H42           -0.7281    -3.5081     1.6786 H       
  43 H43            1.0654    -2.1344     1.1920 H       
  44 H44            1.5250    -1.9506    -0.5153 H       
  45 H45           -2.6455    -1.8062     2.3759 H       
  46 H46           -0.9319    -1.3364     2.4957 H       
  47 H47           -2.3365    -0.8808    -0.1202 H       
  48 H48           -2.7286     0.2049     1.2319 H       
  49 H49            2.8376     3.0429    -0.0952 H       
  50 H50            0.3338     9.6460     1.0904 H       
  51 H51            1.1587    11.2226     1.1364 H       
  52 H52            2.6539     5.6132    -0.8843 H       
  53 H53            3.0333     5.5576     0.8538 H       
  54 H54            5.2983     9.4841    -0.4169 H       
  55 H55            0.9738    11.3380    -1.3666 H       
  56 H56           -0.6097    11.2936    -0.5550 H       
  57 H57            1.6370    12.5535     0.2150 H       
  58 H58            5.1662    -1.0790    -0.1640 H       
  59 H59            5.5876     0.6499    -0.2031 H       
  60 H60            6.5166    10.9343    -0.3071 H       
  61 H61            5.4403    15.7620    -0.1510 H       
  62 H62            8.2859    12.6136    -0.4760 H       
  63 H63            7.7447    15.0086    -0.3979 H       
  64 H64            6.0364     0.5957     2.2350 H       
  65 H65            5.6149    -1.1332     2.2741 H       
  66 H66            7.0492    -0.5870     1.3725 H       
  67 H67           -1.6195    10.3559    -2.5767 H       
  68 H68           -0.0360    10.4003    -3.3882 H       
  69 H69           -0.9217     8.8627    -3.2487 H       
@<TRIPOS>BOND
   1    1   18 1
   2    1   20 1
   3    2   26 1
   4    2   27 1
   5    3   21 1
   6    3   31 1
   7    4   21 2
   8    5   22 2
   9    6   30 1
  10    6   38 1
  11    7   20 1
  12    7   22 am
  13    7   49 1
  14    8   23 1
  15    8   25 1
  16    8   27 1
  17    9   10 1
  18    9   23 1
  19    9   54 1
  20   10   27 2
  21   11   29 1
  22   11   32 2
  23   12   13 1
  24   12   14 1
  25   12   39 1
  26   12   40 1
  27   13   15 1
  28   13   41 1
  29   13   42 1
  30   14   16 1
  31   14   43 1
  32   14   44 1
  33   15   17 1
  34   15   45 1
  35   15   46 1
  36   16   18 2
  37   16   19 1
  38   17   18 1
  39   17   47 1
  40   17   48 1
  41   19   20 2
  42   19   21 1
  43   22   26 1
  44   23   24 2
  45   24   28 1
  46   24   32 1
  47   25   30 1
  48   25   50 1
  49   25   51 1
  50   26   52 1
  51   26   53 1
  52   28   29 ar
  53   28   33 ar
  54   29   34 ar
  55   30   55 1
  56   30   56 1
  57   31   36 1
  58   31   58 1
  59   31   59 1
  60   32   57 1
  61   33   35 ar
  62   33   60 1
  63   34   37 ar
  64   34   61 1
  65   35   37 ar
  66   35   62 1
  67   36   64 1
  68   36   65 1
  69   36   66 1
  70   37   63 1
  71   38   67 1
  72   38   68 1
  73   38   69 1

#	End of record

#	Name: 6099101
#	Creating user name:	landrgr1
#	Creation time:	28. 01. 2015 13:52

#	Modifying user name:	landrgr1
#	Modification time:	28. 01. 2015 13:52

#	Program:	corina 3.48 0006  22.01.2010

@<TRIPOS>MOLECULE
6099101
  42   44    0    0    0
SMALL
NO_CHARGES


@<TRIPOS>ATOM
   1 S1             0.3911     1.5402     1.3436 S.3     
   2 O2             6.9194     1.8645    -0.2190 O.3     
   3 O3             5.7061    -2.6219    -1.1467 O.2     
   4 N4             3.5712    -3.6051    -0.0371 N.pl3   
   5 N5             1.3693    -4.3314     0.2510 N.2     
   6 N6             1.4161     0.2677    -0.5146 N.2     
   7 N7             3.0476    -5.8967    -0.0888 N.pl3   
   8 C8             4.1656    -1.2141     0.0087 C.2     
   9 C9             3.1843    -2.2987     0.0946 C.2     
  10 C10            4.7929     1.0508     0.4767 C.2     
  11 C11            3.8781     0.0421     0.5570 C.2     
  12 C12            1.8238    -2.0217     0.3136 C.2     
  13 C13            4.4719     2.3979     1.0710 C.3     
  14 C14            6.0224     0.8478    -0.1495 C.2     
  15 C15            5.4136    -1.4303    -0.6240 C.2     
  16 C16            6.3364    -0.3827    -0.6951 C.2     
  17 C17            1.3496    -0.6247     0.4629 C.2     
  18 C18            0.9295    -3.0896     0.3869 C.2     
  19 C19            5.0278     2.4729     2.4945 C.3     
  20 C20            2.6468    -4.5951     0.0451 C.2     
  21 C21            0.8126    -0.1502     1.6054 C.2     
  22 C22            0.9711     1.4500    -0.2615 C.2     
  23 C23            8.1600     1.5915    -0.8736 C.3     
  24 C24            0.9625     2.5930    -1.2436 C.3     
  25 H25            2.9295     0.2127     1.0443 H       
  26 H26            4.9246     3.1807     0.4625 H       
  27 H27            3.3909     2.5360     1.0954 H       
  28 H28            7.2901    -0.5331    -1.1790 H       
  29 H29            4.5036    -3.8225    -0.1928 H       
  30 H30           -0.1212    -2.9038     0.5541 H       
  31 H31            4.8739     3.4760     2.8923 H       
  32 H32            4.5115     1.7489     3.1248 H       
  33 H33            6.0941     2.2473     2.4804 H       
  34 H34            0.6673    -0.7075     2.5190 H       
  35 H35            3.9832    -6.1030    -0.2406 H       
  36 H36            2.3961    -6.6131    -0.0319 H       
  37 H37            7.9693     1.2981    -1.9059 H       
  38 H38            8.7829     2.4859    -0.8592 H       
  39 H39            8.6741     0.7823    -0.3549 H       
  40 H40            0.6153     3.4979    -0.7449 H       
  41 H41            1.9713     2.7524    -1.6245 H       
  42 H42            0.2947     2.3555    -2.0717 H       
@<TRIPOS>BOND
   1    1   21 1
   2    1   22 1
   3    2   14 1
   4    2   23 1
   5    3   15 2
   6    4    9 1
   7    4   20 1
   8    4   29 1
   9    5   18 1
  10    5   20 2
  11    6   17 1
  12    6   22 2
  13    7   20 1
  14    7   35 1
  15    7   36 1
  16    8    9 2
  17    8   11 1
  18    8   15 1
  19    9   12 1
  20   10   11 2
  21   10   13 1
  22   10   14 1
  23   11   25 1
  24   12   17 1
  25   12   18 2
  26   13   19 1
  27   13   26 1
  28   13   27 1
  29   14   16 2
  30   15   16 1
  31   16   28 1
  32   17   21 2
  33   18   30 1
  34   19   31 1
  35   19   32 1
  36   19   33 1
  37   21   34 1
  38   22   24 1
  39   23   37 1
  40   23   38 1
  41   23   39 1
  42   24   40 1
  43   24   41 1
  44   24   42 1

#	End of record

#	Name: 6098091
#	Creating user name:	landrgr1
#	Creation time:	28. 01. 2015 13:52

#	Modifying user name:	landrgr1
#	Modification time:	28. 01. 2015 13:52

#	Program:	corina 3.48 0006  22.01.2010

@<TRIPOS>MOLECULE
6098091
  39   41    0    0    0
SMALL
NO_CHARGES


@<TRIPOS>ATOM
   1 O1            -2.2476    -0.1415    -1.2308 O.2     
   2 N2             0.0672     0.5087    -0.5068 N.pl3   
   3 N3             3.9662    -0.6371    -0.1373 N.pl3   
   4 N4             1.7118    -1.1506    -0.5284 N.2     
   5 C5             0.4441    -0.7913    -0.6507 C.2     
   6 C6             2.6521    -0.2485    -0.2621 C.2     
   7 C7             0.9956     1.4634    -0.2338 C.2     
   8 C8            -0.5719    -1.8110    -0.9457 C.2     
   9 C9             2.2983     1.1040    -0.1071 C.2     
  10 C10            4.3004    -1.9940    -0.1749 C.ar    
  11 C11            5.5093    -2.3981    -0.7270 C.ar    
  12 C12            3.4269    -2.9407     0.3450 C.ar    
  13 C13            4.9624    -4.6797    -0.2484 C.ar    
  14 C14            0.5834     2.9041    -0.0740 C.3     
  15 C15           -1.9029    -1.4296    -1.2294 C.2     
  16 C16           -0.2288    -3.1667    -0.9538 C.2     
  17 C17            5.8366    -3.7393    -0.7621 C.ar    
  18 C18            3.7604    -4.2803     0.3067 C.ar    
  19 C19           -2.8565    -2.4162    -1.5086 C.2     
  20 C20           -1.1846    -4.1168    -1.2317 C.2     
  21 C21            5.3227    -6.1424    -0.2889 C.3     
  22 C22           -2.4939    -3.7431    -1.5049 C.2     
  23 H23           -0.8660     0.7553    -0.6034 H       
  24 H24            3.0525     1.8460     0.1097 H       
  25 H25            4.6606     0.0305    -0.0233 H       
  26 H26            6.1923    -1.6643    -1.1287 H       
  27 H27            2.4882    -2.6295     0.7790 H       
  28 H28            0.3439     3.0997     0.9712 H       
  29 H29            1.4014     3.5529    -0.3869 H       
  30 H30           -0.2933     3.1016    -0.6908 H       
  31 H31            0.7866    -3.4680    -0.7423 H       
  32 H32            6.7762    -4.0542    -1.1915 H       
  33 H33            3.0817    -5.0169     0.7107 H       
  34 H34           -3.8764    -2.1354    -1.7263 H       
  35 H35           -0.9142    -5.1624    -1.2370 H       
  36 H36            5.8587    -6.4099     0.6217 H       
  37 H37            4.4133    -6.7387    -0.3636 H       
  38 H38            5.9566    -6.3366    -1.1540 H       
  39 H39           -3.2330    -4.5006    -1.7205 H       
@<TRIPOS>BOND
   1    1   15 2
   2    2    5 1
   3    2    7 1
   4    2   23 1
   5    3    6 1
   6    3   10 1
   7    3   25 1
   8    4    5 1
   9    4    6 2
  10    5    8 2
  11    6    9 1
  12    7    9 2
  13    7   14 1
  14    8   15 1
  15    8   16 1
  16    9   24 1
  17   10   11 ar
  18   10   12 ar
  19   11   17 ar
  20   11   26 1
  21   12   18 ar
  22   12   27 1
  23   13   17 ar
  24   13   18 ar
  25   13   21 1
  26   14   28 1
  27   14   29 1
  28   14   30 1
  29   15   19 1
  30   16   20 2
  31   16   31 1
  32   17   32 1
  33   18   33 1
  34   19   22 2
  35   19   34 1
  36   20   22 1
  37   20   35 1
  38   21   36 1
  39   21   37 1
  40   21   38 1
  41   22   39 1

#	End of record

#	Name: 6097895
#	Creating user name:	landrgr1
#	Creation time:	28. 01. 2015 13:52

#	Modifying user name:	landrgr1
#	Modification time:	28. 01. 2015 13:52

#	Program:	corina 3.48 0006  22.01.2010

@<TRIPOS>MOLECULE
6097895
  45   47    0    0    0
SMALL
NO_CHARGES


@<TRIPOS>ATOM
   1 O1             1.0060    -0.3767    -0.2796 O.3     
   2 O2            -8.3430     1.7362     1.3614 O.2     
   3 O3             1.5350    -2.3104     0.6747 O.2     
   4 N4            -7.7035    -0.5674     0.5933 N.pl3   
   5 N5            -4.6986    -3.2904     0.1307 N.pl3   
   6 N6            -5.4299    -1.1049     0.5664 N.2     
   7 C7            -6.3954    -0.2126     0.7187 C.2     
   8 C8            -5.7138    -2.3735     0.2868 C.2     
   9 C9            -8.0385    -1.8535     0.3086 C.2     
  10 C10           -7.0546    -2.7753     0.1507 C.2     
  11 C11           -6.0502     1.1819     1.0267 C.2     
  12 C12           -3.3714    -2.8697     0.1507 C.ar    
  13 C13           -2.3877    -3.7003     0.6798 C.ar    
  14 C14           -3.0306    -1.6221    -0.3640 C.ar    
  15 C15           -9.4853    -2.2514     0.1692 C.3     
  16 C16           -0.7300    -2.0323     0.1911 C.ar    
  17 C17           -7.0645     2.1143     1.3417 C.2     
  18 C18           -4.7145     1.5965     1.0164 C.2     
  19 C19           -1.0750    -3.2875     0.7016 C.ar    
  20 C20           -1.7199    -1.2031    -0.3453 C.ar    
  21 C21           -6.7152     3.4388     1.6323 C.2     
  22 C22           -4.3976     2.9038     1.3061 C.2     
  23 C23           -5.3943     3.8220     1.6096 C.2     
  24 C24            0.6752    -1.5867     0.2128 C.2     
  25 C25            2.4083    -0.0040    -0.2255 C.3     
  26 C26            2.5885     1.3919    -0.8255 C.3     
  27 H27           -8.3987     0.0985     0.7118 H       
  28 H28           -7.2980    -3.8027    -0.0766 H       
  29 H29           -4.9079    -4.2294     0.0067 H       
  30 H30           -2.6549    -4.6695     1.0743 H       
  31 H31           -3.7956    -0.9821    -0.7781 H       
  32 H32           -9.7958    -2.1348    -0.8691 H       
  33 H33           -9.6066    -3.2920     0.4701 H       
  34 H34          -10.1001    -1.6151     0.8058 H       
  35 H35           -3.9318     0.8904     0.7813 H       
  36 H36           -0.3123    -3.9321     1.1129 H       
  37 H37           -1.4561    -0.2350    -0.7448 H       
  38 H38           -7.4826     4.1593     1.8739 H       
  39 H39           -3.3645     3.2186     1.2975 H       
  40 H40           -5.1297     4.8447     1.8341 H       
  41 H41            2.7434     0.0003     0.8117 H       
  42 H42            2.9976    -0.7230    -0.7947 H       
  43 H43            3.6412     1.6717    -0.7849 H       
  44 H44            2.2534     1.3876    -1.8627 H       
  45 H45            1.9992     2.1108    -0.2563 H       
@<TRIPOS>BOND
   1    1   24 1
   2    1   25 1
   3    2   17 2
   4    3   24 2
   5    4    7 1
   6    4    9 1
   7    4   27 1
   8    5    8 1
   9    5   12 1
  10    5   29 1
  11    6    7 1
  12    6    8 2
  13    7   11 2
  14    8   10 1
  15    9   10 2
  16    9   15 1
  17   10   28 1
  18   11   17 1
  19   11   18 1
  20   12   13 ar
  21   12   14 ar
  22   13   19 ar
  23   13   30 1
  24   14   20 ar
  25   14   31 1
  26   15   32 1
  27   15   33 1
  28   15   34 1
  29   16   19 ar
  30   16   20 ar
  31   16   24 1
  32   17   21 1
  33   18   22 2
  34   18   35 1
  35   19   36 1
  36   20   37 1
  37   21   23 2
  38   21   38 1
  39   22   23 1
  40   22   39 1
  41   23   40 1
  42   25   26 1
  43   25   41 1
  44   25   42 1
  45   26   43 1
  46   26   44 1
  47   26   45 1

#	End of record

#	Name: 6097138
#	Creating user name:	landrgr1
#	Creation time:	28. 01. 2015 13:52

#	Modifying user name:	landrgr1
#	Modification time:	28. 01. 2015 13:52

#	Program:	corina 3.48 0006  22.01.2010

@<TRIPOS>MOLECULE
6097138
  37   38    0    0    0
SMALL
NO_CHARGES


@<TRIPOS>ATOM
   1 O1            -0.0973    -2.8230    -0.2208 O.2     
   2 N2            -0.0161     1.3542    -0.0509 N.pl3   
   3 C3             3.6056     2.2448    -0.0254 C.3     
   4 C4             4.0795     2.4690     1.4120 C.3     
   5 C5             2.3348     1.4349    -0.0148 C.2     
   6 C6             5.3697     3.2913     1.4012 C.3     
   7 C7             0.0021    -0.0041     0.0020 C.2     
   8 C8             1.1291     2.0607    -0.0591 C.2     
   9 C9             2.3951     0.0415     0.0401 C.2     
  10 C10           -1.2606    -0.7562     0.0096 C.2     
  11 C11            1.2180    -0.6833     0.0486 C.2     
  12 C12            5.8436     3.5156     2.8386 C.3     
  13 C13           -1.2517    -2.1648    -0.1044 C.2     
  14 C14           -2.4804    -0.0845     0.1355 C.2     
  15 C15           -3.6518    -2.1781     0.0251 C.2     
  16 C16           -2.4646    -2.8634    -0.0947 C.2     
  17 C17           -3.6596    -0.7946     0.1424 C.2     
  18 C18           -4.9542    -2.9361     0.0349 C.3     
  19 H19            3.4188     3.2078    -0.5007 H       
  20 H20            4.3740     1.7080    -0.5817 H       
  21 H21            3.3111     3.0059     1.9683 H       
  22 H22            4.2663     1.5061     1.8874 H       
  23 H23            6.1381     2.7545     0.8449 H       
  24 H24            5.1829     4.2543     0.9259 H       
  25 H25            1.0897     3.1391    -0.1018 H       
  26 H26            3.3490    -0.4639     0.0753 H       
  27 H27           -0.8661     1.8202    -0.0872 H       
  28 H28            1.2403    -1.7623     0.0911 H       
  29 H29            5.0752     4.0524     3.3949 H       
  30 H30            6.0304     2.5526     3.3139 H       
  31 H31            6.7628     4.1014     2.8309 H       
  32 H32           -2.4974     0.9914     0.2277 H       
  33 H33           -2.4687    -3.9399    -0.1817 H       
  34 H34           -4.5991    -0.2710     0.2403 H       
  35 H35           -5.2126    -3.2012     1.0601 H       
  36 H36           -5.7412    -2.3117    -0.3882 H       
  37 H37           -4.8510    -3.8435    -0.5601 H       
@<TRIPOS>BOND
   1    1   13 2
   2    2    7 1
   3    2    8 1
   4    2   27 1
   5    3    4 1
   6    3    5 1
   7    3   19 1
   8    3   20 1
   9    4    6 1
  10    4   21 1
  11    4   22 1
  12    5    8 2
  13    5    9 1
  14    6   12 1
  15    6   23 1
  16    6   24 1
  17    7   10 2
  18    7   11 1
  19    8   25 1
  20    9   11 2
  21    9   26 1
  22   10   13 1
  23   10   14 1
  24   11   28 1
  25   12   29 1
  26   12   30 1
  27   12   31 1
  28   13   16 1
  29   14   17 2
  30   14   32 1
  31   15   16 2
  32   15   17 1
  33   15   18 1
  34   16   33 1
  35   17   34 1
  36   18   35 1
  37   18   36 1
  38   18   37 1

#	End of record

#	Name: 6096742
#	Creating user name:	landrgr1
#	Creation time:	28. 01. 2015 13:52

#	Modifying user name:	landrgr1
#	Modification time:	28. 01. 2015 13:52

#	Program:	corina 3.48 0006  22.01.2010

@<TRIPOS>MOLECULE
6096742
  61   63    0    0    0
SMALL
NO_CHARGES


@<TRIPOS>ATOM
   1 S1            -0.5061     1.2129     0.0215 S.o2    
   2 O2            -0.8265    -0.1713     0.0452 O.2     
   3 O3             0.8271     1.7012    -0.0376 O.2     
   4 O4            -4.0868     2.7967    -4.4342 O.2     
   5 O5            -2.5644     4.8057    -5.7723 O.3     
   6 O6            -1.2517     6.2525    -6.8255 O.2     
   7 N7            -1.2971     1.8537    -1.2846 N.am    
   8 N8            -2.8702     3.9252    -3.0197 N.am    
   9 N9            -1.7251     4.3710    -7.9055 N.am    
  10 C10           -0.8221     3.0953    -1.9247 C.3     
  11 C11           -1.9635     4.1166    -1.8983 C.3     
  12 C12           -2.4840     1.2006    -1.8404 C.3     
  13 C13           -2.5000     1.4797    -3.3471 C.3     
  14 C14           -3.1886     2.7831    -3.6193 C.2     
  15 C15           -3.5060     5.1337    -3.5505 C.3     
  16 C16           -1.2298     1.9159     1.4660 C.ar    
  17 C17           -2.6286     5.7291    -4.6535 C.3     
  18 C18           -2.3057     1.2948     2.0723 C.ar    
  19 C19           -0.7182     3.0855     1.9963 C.ar    
  20 C20           -2.8736     1.8463     3.2055 C.ar    
  21 C21           -1.2860     3.6370     3.1295 C.ar    
  22 C22           -2.3652     3.0187     3.7328 C.ar    
  23 C23           -2.9846     3.6203     4.9679 C.3     
  24 C24           -1.8264     5.1819    -6.8338 C.2     
  25 C25           -1.0514     4.8073    -9.0520 C.ar    
  26 C26            0.3172     4.3343   -10.9633 C.ar    
  27 C27           -0.3468     3.9005    -9.8323 C.ar    
  28 C28            0.2807     5.6700   -11.3185 C.ar    
  29 C29           -1.0908     6.1474    -9.4147 C.ar    
  30 C30           -0.4249     6.5748   -10.5464 C.ar    
  31 C31            1.0822     3.3507   -11.8108 C.3     
  32 C32            1.0071     6.1400   -12.5524 C.3     
  33 H33            0.0344     3.4872    -1.3759 H       
  34 H34           -0.5358     2.8907    -2.9563 H       
  35 H35           -1.5442     5.1216    -1.9458 H       
  36 H36           -2.5193     4.0066    -0.9672 H       
  37 H37           -2.4325     0.1263    -1.6634 H       
  38 H38           -3.3824     1.6101    -1.3785 H       
  39 H39           -1.4758     1.5274    -3.7172 H       
  40 H40           -3.0307     0.6765    -3.8583 H       
  41 H41           -4.4832     4.8797    -3.9610 H       
  42 H42           -3.6268     5.8626    -2.7491 H       
  43 H43           -1.6243     5.9007    -4.2660 H       
  44 H44           -3.0559     6.6747    -4.9869 H       
  45 H45           -2.7029     0.3788     1.6604 H       
  46 H46            0.1254     3.5682     1.5253 H       
  47 H47           -3.7146     1.3615     3.6788 H       
  48 H48           -0.8860     4.5506     3.5440 H       
  49 H49           -2.4897     3.2216     5.8535 H       
  50 H50           -2.8669     4.7036     4.9426 H       
  51 H51           -4.0451     3.3707     5.0010 H       
  52 H52           -2.1192     3.4850    -7.8823 H       
  53 H53           -0.3177     2.8570    -9.5552 H       
  54 H54           -1.6420     6.8545    -8.8124 H       
  55 H55           -0.4512     7.6176   -10.8263 H       
  56 H56            0.4232     2.9412   -12.5764 H       
  57 H57            1.9217     3.8572   -12.2870 H       
  58 H58            1.4550     2.5421   -11.1820 H       
  59 H59            0.3393     6.0809   -13.4118 H       
  60 H60            1.3297     7.1718   -12.4132 H       
  61 H61            1.8778     5.5072   -12.7246 H       
@<TRIPOS>BOND
   1    1    2 2
   2    1    3 2
   3    1    7 am
   4    1   16 1
   5    4   14 2
   6    5   17 1
   7    5   24 1
   8    6   24 2
   9    7   10 1
  10    7   12 1
  11    8   11 1
  12    8   14 am
  13    8   15 1
  14    9   24 am
  15    9   25 1
  16    9   52 1
  17   10   11 1
  18   10   33 1
  19   10   34 1
  20   11   35 1
  21   11   36 1
  22   12   13 1
  23   12   37 1
  24   12   38 1
  25   13   14 1
  26   13   39 1
  27   13   40 1
  28   15   17 1
  29   15   41 1
  30   15   42 1
  31   16   18 ar
  32   16   19 ar
  33   17   43 1
  34   17   44 1
  35   18   20 ar
  36   18   45 1
  37   19   21 ar
  38   19   46 1
  39   20   22 ar
  40   20   47 1
  41   21   22 ar
  42   21   48 1
  43   22   23 1
  44   23   49 1
  45   23   50 1
  46   23   51 1
  47   25   27 ar
  48   25   29 ar
  49   26   27 ar
  50   26   28 ar
  51   26   31 1
  52   27   53 1
  53   28   30 ar
  54   28   32 1
  55   29   30 ar
  56   29   54 1
  57   30   55 1
  58   31   56 1
  59   31   57 1
  60   31   58 1
  61   32   59 1
  62   32   60 1
  63   32   61 1

#	End of record

#	Name: 6096667
#	Creating user name:	landrgr1
#	Creation time:	28. 01. 2015 13:52

#	Modifying user name:	landrgr1
#	Modification time:	28. 01. 2015 13:52

#	Program:	corina 3.48 0006  22.01.2010

@<TRIPOS>MOLECULE
6096667
  57   59    0    0    0
SMALL
NO_CHARGES


@<TRIPOS>ATOM
   1 S1            -0.0172     1.4168     0.0098 S.o2    
   2 O2             0.0021    -0.0041     0.0020 O.2     
   3 O3             1.1617     2.2101     0.0028 O.2     
   4 O4            -3.7417     2.2011    -4.5394 O.2     
   5 O5            -2.7106     4.5584    -5.7775 O.3     
   6 N6            -0.9002     1.8797    -1.3124 N.am    
   7 N7            -2.8718     3.5550    -3.0682 N.am    
   8 C8            -0.7174     3.2130    -1.9175 C.3     
   9 C9            -2.0701     3.9317    -1.9142 C.3     
  10 C10           -1.8799     0.9752    -1.9174 C.3     
  11 C11           -1.9183     1.2763    -3.4195 C.3     
  12 C12           -2.8904     2.3837    -3.6951 C.2     
  13 C13           -3.7623     4.5886    -3.6019 C.3     
  14 C14           -0.9297     1.8941     1.4396 C.ar    
  15 C15           -3.0211     5.4008    -4.6657 C.3     
  16 C16           -1.8430     1.0209     2.0000 C.ar    
  17 C17           -0.7281     3.1397     2.0041 C.ar    
  18 C18           -2.5589     1.3954     3.1217 C.ar    
  19 C19           -1.4439     3.5143     3.1258 C.ar    
  20 C20           -2.3611     2.6430     3.6832 C.ar    
  21 C21           -2.0137     5.2229    -6.8334 C.3     
  22 C22           -1.7393     4.2455    -7.9472 C.ar    
  23 C23           -3.1419     3.0515     4.9057 C.3     
  24 C24           -2.6583     4.0840    -8.9671 C.ar    
  25 C25           -0.5660     3.5146    -7.9519 C.ar    
  26 C26           -1.2357     2.4527    -9.9907 C.ar    
  27 C27           -2.4066     3.1874    -9.9887 C.ar    
  28 C28           -0.3143     2.6180    -8.9735 C.ar    
  29 C29           -0.9616     1.4749   -11.1042 C.3     
  30 H30            0.0043     3.7852    -1.3345 H       
  31 H31           -0.3606     3.1058    -2.9418 H       
  32 H32           -1.9021     5.0085    -1.9326 H       
  33 H33           -2.6103     3.6714    -1.0040 H       
  34 H34           -1.5782    -0.0596    -1.7548 H       
  35 H35           -2.8631     1.1481    -1.4798 H       
  36 H36           -0.9250     1.5752    -3.7542 H       
  37 H37           -2.2266     0.3814    -3.9601 H       
  38 H38           -4.6382     4.1182    -4.0487 H       
  39 H39           -4.0771     5.2494    -2.7942 H       
  40 H40           -2.0987     5.7981    -4.2422 H       
  41 H41           -3.6522     6.2245    -4.9991 H       
  42 H42           -1.9975     0.0462     1.5614 H       
  43 H43           -0.0110     3.8202     1.5691 H       
  44 H44           -3.2730     0.7134     3.5591 H       
  45 H45           -1.2861     4.4873     3.5671 H       
  46 H46           -2.6240     6.0429    -7.2118 H       
  47 H47           -1.0704     5.6165    -6.4548 H       
  48 H48           -2.5920     2.7625     5.8013 H       
  49 H49           -3.2860     4.1319     4.9006 H       
  50 H50           -4.1125     2.5555     4.8994 H       
  51 H51           -3.5731     4.6580    -8.9656 H       
  52 H52            0.1541     3.6442    -7.1576 H       
  53 H53           -3.1250     3.0608   -10.7852 H       
  54 H54            0.6025     2.0472    -8.9774 H       
  55 H55           -0.4305     1.9816   -11.9100 H       
  56 H56           -0.3509     0.6552   -10.7257 H       
  57 H57           -1.9049     1.0809   -11.4821 H       
@<TRIPOS>BOND
   1    1    2 2
   2    1    3 2
   3    1    6 am
   4    1   14 1
   5    4   12 2
   6    5   15 1
   7    5   21 1
   8    6    8 1
   9    6   10 1
  10    7    9 1
  11    7   12 am
  12    7   13 1
  13    8    9 1
  14    8   30 1
  15    8   31 1
  16    9   32 1
  17    9   33 1
  18   10   11 1
  19   10   34 1
  20   10   35 1
  21   11   12 1
  22   11   36 1
  23   11   37 1
  24   13   15 1
  25   13   38 1
  26   13   39 1
  27   14   16 ar
  28   14   17 ar
  29   15   40 1
  30   15   41 1
  31   16   18 ar
  32   16   42 1
  33   17   19 ar
  34   17   43 1
  35   18   20 ar
  36   18   44 1
  37   19   20 ar
  38   19   45 1
  39   20   23 1
  40   21   22 1
  41   21   46 1
  42   21   47 1
  43   22   24 ar
  44   22   25 ar
  45   23   48 1
  46   23   49 1
  47   23   50 1
  48   24   27 ar
  49   24   51 1
  50   25   28 ar
  51   25   52 1
  52   26   27 ar
  53   26   28 ar
  54   26   29 1
  55   27   53 1
  56   28   54 1
  57   29   55 1
  58   29   56 1
  59   29   57 1

#	End of record

#	Name: 6096228
#	Creating user name:	landrgr1
#	Creation time:	28. 01. 2015 13:52

#	Modifying user name:	landrgr1
#	Modification time:	28. 01. 2015 13:52

#	Program:	corina 3.48 0006  22.01.2010

@<TRIPOS>MOLECULE
6096228
  68   70    0    0    0
SMALL
NO_CHARGES


@<TRIPOS>ATOM
   1 F1            -9.7934     0.9653     7.1321 F       
   2 F2            -8.4600     0.3247     8.8730 F       
   3 F3            -8.9164    -1.1436     7.1833 F       
   4 F4             1.2854     8.8766     0.3043 F       
   5 F5            -0.5945     8.4493     1.5302 F       
   6 F6            -0.7064     8.5044    -0.7509 F       
   7 O7             0.0234     1.7572     0.1952 O.3     
   8 O8            -1.7220    -2.2395     1.8383 O.2     
   9 O9            -3.7503     3.2341     4.6576 O.2     
  10 N10           -1.7952    -0.0879     1.5031 N.am    
  11 N11           -3.2938     1.1845     3.9344 N.am    
  12 C12           -1.1690    -0.3449     0.2038 C.3     
  13 C13           -2.0592     0.2099    -0.9100 C.3     
  14 C14           -2.1784     1.2899     1.7697 C.3     
  15 C15           -3.3807    -0.5606    -0.9382 C.3     
  16 C16            0.1984     0.3396     0.1524 C.3     
  17 C17           -2.0570     1.6232     3.2599 C.3     
  18 C18           -1.9510    -1.1400     2.2962 C.2     
  19 C19           -2.3941    -1.0486     3.7253 C.3     
  20 C20           -3.6804    -0.2213     3.8228 C.3     
  21 C21           -4.3190     0.0735    -1.9670 C.3     
  22 C22           -3.1135    -2.0175    -1.3214 C.3     
  23 C23           -4.0483     2.0560     4.6328 C.2     
  24 C24            1.2463     2.4953     0.1522 C.3     
  25 C25           -5.2385     1.5789     5.3688 C.ar    
  26 C26            0.9444     3.9709     0.2027 C.ar    
  27 C27           -5.5617     2.1284     6.6105 C.ar    
  28 C28           -6.0471     0.5810     4.8224 C.ar    
  29 C29            0.8652     4.6190     1.4211 C.ar    
  30 C30            0.7522     4.6775    -0.9698 C.ar    
  31 C31           -6.6739     1.6791     7.2918 C.ar    
  32 C32           -7.1565     0.1406     5.5141 C.ar    
  33 C33           -7.4680     0.6856     6.7471 C.ar    
  34 C34            0.5882     5.9725     1.4674 C.ar    
  35 C35            0.4752     6.0311    -0.9236 C.ar    
  36 C36            0.3908     6.6780     0.2951 C.ar    
  37 C37           -8.6812     0.1993     7.4973 C.3     
  38 C38            0.0884     8.1535     0.3456 C.3     
  39 H39           -1.0430    -1.4189     0.0673 H       
  40 H40           -2.2579     1.2655    -0.7245 H       
  41 H41           -1.5531     0.0985    -1.8690 H       
  42 H42           -1.5305     1.9570     1.2009 H       
  43 H43           -3.2104     1.4410     1.4531 H       
  44 H44           -3.8441    -0.5233     0.0477 H       
  45 H45            0.7082     0.0641    -0.7708 H       
  46 H46            0.7963     0.0214     1.0065 H       
  47 H47           -1.9307     2.6984     3.3869 H       
  48 H48           -1.2009     1.0993     3.6851 H       
  49 H49           -2.5784    -2.0509     4.1118 H       
  50 H50           -1.6120    -0.5725     4.3168 H       
  51 H51           -4.2451    -0.5212     4.7055 H       
  52 H52           -4.2847    -0.3691     2.9278 H       
  53 H53           -3.8556     0.0363    -2.9529 H       
  54 H54           -5.2604    -0.4754    -1.9871 H       
  55 H55           -4.5093     1.1115    -1.6940 H       
  56 H56           -2.4451    -2.4693    -0.5885 H       
  57 H57           -4.0550    -2.5664    -1.3415 H       
  58 H58           -2.6502    -2.0548    -2.3073 H       
  59 H59            1.8659     2.2218     1.0063 H       
  60 H60            1.7778     2.2645    -0.7710 H       
  61 H61           -4.9422     2.9035     7.0370 H       
  62 H62           -5.8050     0.1548     3.8600 H       
  63 H63            1.0194     4.0677     2.3370 H       
  64 H64            0.8188     4.1722    -1.9220 H       
  65 H65           -6.9251     2.1035     8.2527 H       
  66 H66           -7.7830    -0.6314     5.0924 H       
  67 H67            0.5256     6.4786     2.4194 H       
  68 H68            0.3255     6.5832    -1.8396 H       
@<TRIPOS>BOND
   1    1   37 1
   2    2   37 1
   3    3   37 1
   4    4   38 1
   5    5   38 1
   6    6   38 1
   7    7   16 1
   8    7   24 1
   9    8   18 2
  10    9   23 2
  11   10   12 1
  12   10   14 1
  13   10   18 am
  14   11   17 1
  15   11   20 1
  16   11   23 am
  17   12   13 1
  18   12   16 1
  19   12   39 1
  20   13   15 1
  21   13   40 1
  22   13   41 1
  23   14   17 1
  24   14   42 1
  25   14   43 1
  26   15   21 1
  27   15   22 1
  28   15   44 1
  29   16   45 1
  30   16   46 1
  31   17   47 1
  32   17   48 1
  33   18   19 1
  34   19   20 1
  35   19   49 1
  36   19   50 1
  37   20   51 1
  38   20   52 1
  39   21   53 1
  40   21   54 1
  41   21   55 1
  42   22   56 1
  43   22   57 1
  44   22   58 1
  45   23   25 1
  46   24   26 1
  47   24   59 1
  48   24   60 1
  49   25   27 ar
  50   25   28 ar
  51   26   29 ar
  52   26   30 ar
  53   27   31 ar
  54   27   61 1
  55   28   32 ar
  56   28   62 1
  57   29   34 ar
  58   29   63 1
  59   30   35 ar
  60   30   64 1
  61   31   33 ar
  62   31   65 1
  63   32   33 ar
  64   32   66 1
  65   33   37 1
  66   34   36 ar
  67   34   67 1
  68   35   36 ar
  69   35   68 1
  70   36   38 1

#	End of record

#	Name: 6096188
#	Creating user name:	landrgr1
#	Creation time:	28. 01. 2015 13:52

#	Modifying user name:	landrgr1
#	Modification time:	28. 01. 2015 13:52

#	Program:	corina 3.48 0006  22.01.2010

@<TRIPOS>MOLECULE
6096188
  51   54    0    0    0
SMALL
NO_CHARGES


@<TRIPOS>ATOM
   1 O1            -0.1555     0.8298     0.0407 O.3     
   2 O2            -4.8390     1.2101    -0.6824 O.2     
   3 N3            -3.5116     1.2685    -3.9435 N.ar    
   4 N4            -2.9896     0.2070    -1.3924 N.am    
   5 C5            -2.3362     0.0927    -6.4572 C.ar    
   6 C6            -1.4180    -0.1863    -7.4989 C.ar    
   7 C7            -2.7569     1.4275    -6.2441 C.ar    
   8 C8            -0.9405     0.8648    -8.3011 C.ar    
   9 C9            -3.7159     1.7460    -5.1613 C.ar    
  10 C10           -2.2625     2.4313    -7.0577 C.ar    
  11 C11           -1.3608     2.1404    -8.0756 C.ar    
  12 C12           -2.8068    -0.9555    -5.6540 C.ar    
  13 C13           -1.0000    -1.5112    -7.7109 C.ar    
  14 C14            0.0370     0.5796    -9.4120 C.3     
  15 C15           -2.3764    -2.2275    -5.8843 C.ar    
  16 C16           -1.4815    -2.5052    -6.9148 C.ar    
  17 C17           -4.8280     2.5476    -5.4354 C.ar    
  18 C18           -4.3467     1.5303    -2.9469 C.ar    
  19 C19           -2.7239    -0.3427    -0.0607 C.3     
  20 C20           -1.4567    -1.1574    -0.0971 C.ar    
  21 C21           -5.7184     2.8388    -4.4179 C.ar    
  22 C22           -5.4742     2.3221    -3.1534 C.ar    
  23 C23           -4.0780     0.9743    -1.5999 C.2     
  24 C24           -0.2228    -0.5249    -0.0439 C.ar    
  25 C25           -1.5225    -2.5347    -0.1779 C.ar    
  26 C26            0.9418    -1.2776    -0.0777 C.ar    
  27 C27           -0.3599    -3.2828    -0.2114 C.ar    
  28 C28            0.8707    -2.6547    -0.1643 C.ar    
  29 C29            1.1482     1.4127     0.0916 C.3     
  30 H30           -2.5799     3.4515    -6.9004 H       
  31 H31           -0.9876     2.9399    -8.6984 H       
  32 H32           -3.5068    -0.7556    -4.8562 H       
  33 H33           -0.3006    -1.7397    -8.5015 H       
  34 H34           -0.5092     0.3687   -10.3314 H       
  35 H35            0.6797     1.4470    -9.5621 H       
  36 H36            0.6476    -0.2833    -9.1461 H       
  37 H37           -2.7405    -3.0332    -5.2640 H       
  38 H38           -1.1590    -3.5226    -7.0799 H       
  39 H39           -4.9900     2.9350    -6.4304 H       
  40 H40           -2.6110     0.4732     0.6532 H       
  41 H41           -3.5559    -0.9783     0.2426 H       
  42 H42           -6.5853     3.4557    -4.6036 H       
  43 H43           -2.3821     0.0187    -2.1248 H       
  44 H44           -6.1510     2.5313    -2.3382 H       
  45 H45           -2.4826    -3.0277    -0.2145 H       
  46 H46            1.9034    -0.7876    -0.0368 H       
  47 H47           -0.4135    -4.3597    -0.2742 H       
  48 H48            1.7772    -3.2412    -0.1910 H       
  49 H49            1.7001     1.1478    -0.8102 H       
  50 H50            1.0591     2.4970     0.1578 H       
  51 H51            1.6799     1.0378     0.9662 H       
@<TRIPOS>BOND
   1    1   24 1
   2    1   29 1
   3    2   23 2
   4    3    9 ar
   5    3   18 ar
   6    4   19 1
   7    4   23 am
   8    4   43 1
   9    5    6 ar
  10    5    7 ar
  11    5   12 ar
  12    6    8 ar
  13    6   13 ar
  14    7    9 1
  15    7   10 ar
  16    8   11 ar
  17    8   14 1
  18    9   17 ar
  19   10   11 ar
  20   10   30 1
  21   11   31 1
  22   12   15 ar
  23   12   32 1
  24   13   16 ar
  25   13   33 1
  26   14   34 1
  27   14   35 1
  28   14   36 1
  29   15   16 ar
  30   15   37 1
  31   16   38 1
  32   17   21 ar
  33   17   39 1
  34   18   22 ar
  35   18   23 1
  36   19   20 1
  37   19   40 1
  38   19   41 1
  39   20   24 ar
  40   20   25 ar
  41   21   22 ar
  42   21   42 1
  43   22   44 1
  44   24   26 ar
  45   25   27 ar
  46   25   45 1
  47   26   28 ar
  48   26   46 1
  49   27   28 ar
  50   27   47 1
  51   28   48 1
  52   29   49 1
  53   29   50 1
  54   29   51 1

#	End of record

#	Name: 6093539
#	Creating user name:	landrgr1
#	Creation time:	28. 01. 2015 13:52

#	Modifying user name:	landrgr1
#	Modification time:	28. 01. 2015 13:52

#	Program:	corina 3.48 0006  22.01.2010

@<TRIPOS>MOLECULE
6093539
  20   21    0    0    0
SMALL
NO_CHARGES


@<TRIPOS>ATOM
   1 Br1            5.3739     5.2044    -0.0218 Br      
   2 O2            -0.4031     4.0391     0.0165 O.2     
   3 N3            -0.0169     1.3973     0.0097 N.pl3   
   4 N4             0.0021    -0.0041     0.0020 N.pl3   
   5 C5             1.2840     1.8246    -0.0004 C.2     
   6 C6             1.7386     3.2152     0.0027 C.2     
   7 C7             2.1001     0.6855    -0.0143 C.2     
   8 C8             3.1089     3.5134    -0.0088 C.2     
   9 C9             0.7993     4.2760     0.0114 C.2     
  10 C10            1.2995    -0.4108    -0.0126 C.2     
  11 C11            3.5237     4.8137    -0.0062 C.2     
  12 C12            1.2608     5.5996     0.0138 C.2     
  13 C13            2.6014     5.8546     0.0082 C.2     
  14 H14           -0.8064     1.9609     0.0167 H       
  15 H15            3.1800     0.6806    -0.0246 H       
  16 H16            3.8356     2.7145    -0.0193 H       
  17 H17           -0.7758    -0.5836     0.0066 H       
  18 H18            1.6372    -1.4365    -0.0213 H       
  19 H19            0.5555     6.4174     0.0208 H       
  20 H20            2.9502     6.8767     0.0107 H       
@<TRIPOS>BOND
   1    1   11 1
   2    2    9 2
   3    3    4 1
   4    3    5 1
   5    3   14 1
   6    4   10 1
   7    4   17 1
   8    5    6 2
   9    5    7 1
  10    6    8 1
  11    6    9 1
  12    7   10 2
  13    7   15 1
  14    8   11 2
  15    8   16 1
  16    9   12 1
  17   10   18 1
  18   11   13 1
  19   12   13 2
  20   12   19 1
  21   13   20 1

#	End of record

#	Name: 6093513
#	Creating user name:	landrgr1
#	Creation time:	28. 01. 2015 13:52

#	Modifying user name:	landrgr1
#	Modification time:	28. 01. 2015 13:52

#	Program:	corina 3.48 0006  22.01.2010

@<TRIPOS>MOLECULE
6093513
  31   33    0    0    0
SMALL
NO_CHARGES


@<TRIPOS>ATOM
   1 O1            -1.4281     2.5841     1.3411 O.2     
   2 O2             2.0690     0.0304    -1.4455 O.3     
   3 N3             0.0244     1.3325     0.1108 N.am    
   4 N4            -2.0556    -1.3904    -0.9412 N.ar    
   5 N5            -2.0485     0.6524     0.3350 N.2     
   6 C6            -0.1130     0.1311    -0.5985 C.2     
   7 C7            -1.4636    -0.2650    -0.4229 C.2     
   8 C8             1.1881     2.1024     0.2280 C.ar    
   9 C9            -1.1774     1.6085     0.6532 C.2     
  10 C10            1.4729     3.0811    -0.7153 C.ar    
  11 C11            2.0569     1.8929     1.2909 C.ar    
  12 C12           -3.0031    -2.0052    -0.2427 C.ar    
  13 C13           -1.6711    -1.8359    -2.1317 C.ar    
  14 C14            0.8478    -0.5188    -1.3067 C.2     
  15 C15            2.6212     3.8391    -0.5966 C.ar    
  16 C16            3.2036     2.6543     1.4039 C.ar    
  17 C17           -3.6175    -3.1377    -0.7347 C.ar    
  18 C18           -2.2458    -2.9630    -2.6806 C.ar    
  19 C19           -3.2351    -3.6330    -1.9738 C.ar    
  20 C20            3.4873     3.6242     0.4599 C.ar    
  21 H21            0.7973     3.2489    -1.5409 H       
  22 H22            1.8360     1.1356     2.0285 H       
  23 H23           -3.2954    -1.6145     0.7208 H       
  24 H24           -0.9007    -1.3099    -2.6759 H       
  25 H25            0.6316    -1.4758    -1.7581 H       
  26 H26            2.8433     4.6004    -1.3298 H       
  27 H27            3.8795     2.4921     2.2305 H       
  28 H28           -4.3873    -3.6338    -0.1622 H       
  29 H29           -1.9296    -3.3207    -3.6494 H       
  30 H30           -3.7006    -4.5181    -2.3814 H       
  31 H31            4.3848     4.2180     0.5503 H       
@<TRIPOS>BOND
   1    1    9 2
   2    2   14 1
   3    3    6 1
   4    3    8 1
   5    3    9 am
   6    4    7 1
   7    4   12 ar
   8    4   13 ar
   9    5    7 2
  10    5    9 1
  11    6    7 1
  12    6   14 2
  13    8   10 ar
  14    8   11 ar
  15   10   15 ar
  16   10   21 1
  17   11   16 ar
  18   11   22 1
  19   12   17 ar
  20   12   23 1
  21   13   18 ar
  22   13   24 1
  23   14   25 1
  24   15   20 ar
  25   15   26 1
  26   16   20 ar
  27   16   27 1
  28   17   19 ar
  29   17   28 1
  30   18   19 ar
  31   18   29 1
  32   19   30 1
  33   20   31 1

#	End of record

#	Name: 6091464
#	Creating user name:	landrgr1
#	Creation time:	28. 01. 2015 13:52

#	Modifying user name:	landrgr1
#	Modification time:	28. 01. 2015 13:52

#	Program:	corina 3.48 0006  22.01.2010

@<TRIPOS>MOLECULE
6091464
  33   35    0    0    0
SMALL
NO_CHARGES


@<TRIPOS>ATOM
   1 S1             0.0343     1.1852    -0.0678 S.o     
   2 O2             3.0804     2.3740    -1.5934 O.2     
   3 O3             0.0000    -0.2310    -0.1803 O.2     
   4 O4             2.0571     4.1333    -4.9050 O.2     
   5 O5             3.1249     2.5731    -3.9688 O.2     
   6 O6            -3.8318     1.8973    -3.9983 O.2     
   7 O7            -2.7894     2.7262    -5.6344 O.2     
   8 N8             1.6630     1.5239    -0.1005 N.am    
   9 N9             2.0753     3.1531    -4.1822 N.pl3   
  10 N10           -2.7932     2.2943    -4.4955 N.pl3   
  11 C11            0.8371     2.1724    -2.2488 C.ar    
  12 C12           -0.3686     1.7237    -1.7023 C.ar    
  13 C13            2.6130     1.2999     0.9920 C.3     
  14 C14            1.9502     2.0361    -1.3003 C.2     
  15 C15            0.8219     2.6668    -3.5630 C.ar    
  16 C16           -1.5367     1.7609    -2.4195 C.ar    
  17 C17            3.2904    -0.0329     0.8032 C.ar    
  18 C18           -1.5358     2.2518    -3.7158 C.ar    
  19 C19           -0.3544     2.7015    -4.2778 C.ar    
  20 C20            4.4629    -0.1155     0.0756 C.ar    
  21 C21            2.7424    -1.1722     1.3624 C.ar    
  22 C22            5.0843    -1.3381    -0.0976 C.ar    
  23 C23            3.3637    -2.3948     1.1892 C.ar    
  24 C24            4.5334    -2.4781     0.4572 C.ar    
  25 H25            3.3621     2.0917     0.9902 H       
  26 H26            2.0808     1.3055     1.9432 H       
  27 H27           -2.4557     1.4081    -1.9753 H       
  28 H28           -0.3548     3.0841    -5.2877 H       
  29 H29            4.8933     0.7752    -0.3578 H       
  30 H30            1.8289    -1.1070     1.9348 H       
  31 H31            6.0000    -1.4026    -0.6666 H       
  32 H32            2.9357    -3.2848     1.6264 H       
  33 H33            5.0187    -3.4334     0.3216 H       
@<TRIPOS>BOND
   1    1    3 2
   2    1    8 am
   3    1   12 1
   4    2   14 2
   5    4    9 2
   6    5    9 2
   7    6   10 2
   8    7   10 2
   9    8   13 1
  10    8   14 am
  11    9   15 1
  12   10   18 1
  13   11   12 ar
  14   11   14 1
  15   11   15 ar
  16   12   16 ar
  17   13   17 1
  18   13   25 1
  19   13   26 1
  20   15   19 ar
  21   16   18 ar
  22   16   27 1
  23   17   20 ar
  24   17   21 ar
  25   18   19 ar
  26   19   28 1
  27   20   22 ar
  28   20   29 1
  29   21   23 ar
  30   21   30 1
  31   22   24 ar
  32   22   31 1
  33   23   24 ar
  34   23   32 1
  35   24   33 1

#	End of record

#	Name: 6078986
#	Creating user name:	landrgr1
#	Creation time:	28. 01. 2015 13:52

#	Modifying user name:	landrgr1
#	Modification time:	28. 01. 2015 13:52

#	Program:	corina 3.48 0006  22.01.2010

@<TRIPOS>MOLECULE
6078986
  52   55    0    0    0
SMALL
NO_CHARGES


@<TRIPOS>ATOM
   1 S1             1.2106     1.6029     2.7082 S.3     
   2 O2             4.6448     4.1058     0.0421 O.2     
   3 N3             7.4934    -1.3649    -1.8960 N.pl3   
   4 N4             3.4006     0.7502     1.8509 N.pl3   
   5 N5             2.7750    -0.2899     2.5018 N.2     
   6 N6             3.0621     3.0345     1.1960 N.2     
   7 N7             5.5972    -0.1658     1.6160 N.2     
   8 C8             7.3479    -0.0247    -1.8946 C.2     
   9 C9             6.2560     0.2883    -1.1019 C.2     
  10 C10            6.5268    -1.9496    -1.1252 C.2     
  11 C11            5.7354    -0.9950    -0.6091 C.2     
  12 C12            8.4900    -2.0607    -2.5933 C.ar    
  13 C13            5.7450     1.5818    -0.8230 C.2     
  14 C14            8.2213     0.9610    -2.6272 C.3     
  15 C15            4.9184     1.7774     0.2646 C.2     
  16 C16            6.3736    -3.4306    -0.8922 C.3     
  17 C17            9.4560    -2.7756    -1.8974 C.ar    
  18 C18            4.6902     0.7147     1.2825 C.2     
  19 C19            8.5104    -2.0414    -3.9813 C.ar    
  20 C20            0.7884    -1.0923     3.8004 C.3     
  21 C21           10.4369    -3.4602    -2.5874 C.ar    
  22 C22            1.6200    -0.0905     3.0415 C.2     
  23 C23            2.6905     1.9219     1.8000 C.2     
  24 C24            4.2056     3.0580     0.4885 C.2     
  25 C25            1.5241    -2.4329     3.8497 C.3     
  26 C26            9.4942    -2.7282    -4.6658 C.ar    
  27 C27           10.4582    -3.4340    -3.9700 C.ar    
  28 C28           11.4856    -4.2363    -1.8330 C.3     
  29 C29            0.6797    -3.4500     4.6201 C.3     
  30 H30            4.8848    -1.1413     0.0401 H       
  31 H31            6.0029     2.4136    -1.4617 H       
  32 H32            7.8174     1.1329    -3.6249 H       
  33 H33            8.2463     1.9024    -2.0783 H       
  34 H34            9.2319     0.5608    -2.7084 H       
  35 H35            6.9515    -3.7221    -0.0152 H       
  36 H36            5.3219    -3.6658    -0.7288 H       
  37 H37            6.7365    -3.9750    -1.7640 H       
  38 H38            9.4403    -2.7958    -0.8177 H       
  39 H39            7.7576    -1.4902    -4.5253 H       
  40 H40            0.6218    -0.7317     4.8154 H       
  41 H41           -0.1707    -1.2224     3.2991 H       
  42 H42            1.6906    -2.7935     2.8346 H       
  43 H43            2.4832    -2.3028     4.3509 H       
  44 H44            9.5103    -2.7139    -5.7456 H       
  45 H45           11.2268    -3.9697    -4.5074 H       
  46 H46           11.1388    -5.2576    -1.6758 H       
  47 H47           12.4109    -4.2513    -2.4089 H       
  48 H48           11.6656    -3.7612    -0.8686 H       
  49 H49            1.2039    -4.4051     4.6552 H       
  50 H50            0.5132    -3.0894     5.6351 H       
  51 H51           -0.2794    -3.5801     4.1188 H       
  52 H52            5.4251    -0.7893     2.3388 H       
@<TRIPOS>BOND
   1    1   22 1
   2    1   23 1
   3    2   24 2
   4    3    8 1
   5    3   10 1
   6    3   12 1
   7    4    5 1
   8    4   18 1
   9    4   23 1
  10    5   22 2
  11    6   23 2
  12    6   24 1
  13    7   18 2
  14    7   52 1
  15    8    9 2
  16    8   14 1
  17    9   11 1
  18    9   13 1
  19   10   11 2
  20   10   16 1
  21   11   30 1
  22   12   17 ar
  23   12   19 ar
  24   13   15 2
  25   13   31 1
  26   14   32 1
  27   14   33 1
  28   14   34 1
  29   15   18 1
  30   15   24 1
  31   16   35 1
  32   16   36 1
  33   16   37 1
  34   17   21 ar
  35   17   38 1
  36   19   26 ar
  37   19   39 1
  38   20   22 1
  39   20   25 1
  40   20   40 1
  41   20   41 1
  42   21   27 ar
  43   21   28 1
  44   25   29 1
  45   25   42 1
  46   25   43 1
  47   26   27 ar
  48   26   44 1
  49   27   45 1
  50   28   46 1
  51   28   47 1
  52   28   48 1
  53   29   49 1
  54   29   50 1
  55   29   51 1

#	End of record

#	Name: 6077931
#	Creating user name:	landrgr1
#	Creation time:	28. 01. 2015 13:52

#	Modifying user name:	landrgr1
#	Modification time:	28. 01. 2015 13:52

#	Program:	corina 3.48 0006  22.01.2010

@<TRIPOS>MOLECULE
6077931
  38   39    0    0    0
SMALL
NO_CHARGES


@<TRIPOS>ATOM
   1 Cl1           -1.4130    -4.8095     1.2400 Cl      
   2 Cl2           -6.1210    -3.7801     3.7311 Cl      
   3 O3            -0.0173     1.4248     0.0099 O.3     
   4 O4             1.4293     6.3496     0.0230 O.3     
   5 O5            -2.0644     0.2438     1.1145 O.2     
   6 O6             2.2067     1.4050    -0.0115 O.2     
   7 N7            -1.3584    -1.8510     0.9275 N.am    
   8 N8            -3.4081    -1.4885     2.0198 N.ar    
   9 C9             0.0021    -0.0041     0.0020 C.3     
  10 C10           -1.2146    -0.5269     0.7213 C.2     
  11 C11           -0.0048    -0.5063    -1.4432 C.3     
  12 C12           -2.4846    -2.3350     1.5933 C.ar    
  13 C13            2.4878     5.5127     0.0079 C.2     
  14 C14            1.8632     7.6174     0.0263 C.2     
  15 C15            1.1771     2.0540     0.0019 C.2     
  16 C16            3.6334     6.2821     0.0014 C.2     
  17 C17            2.4329     4.0985     0.0008 C.2     
  18 C18            3.2149     7.6210     0.0133 C.2     
  19 C19           -2.6266    -3.7029     1.8023 C.ar    
  20 C20            1.2319     3.4658     0.0089 C.2     
  21 C21            0.9853     8.8423     0.0414 C.3     
  22 C22           -3.7496    -4.1699     2.4647 C.ar    
  23 C23           -4.6948    -3.2484     2.8964 C.ar    
  24 C24           -4.4880    -1.9034     2.6540 C.ar    
  25 H25            0.9018    -0.3580     0.5054 H       
  26 H26           -0.9045    -0.1523    -1.9466 H       
  27 H27            0.8752    -0.1281    -1.9634 H       
  28 H28            0.0100    -1.5962    -1.4492 H       
  29 H29           -0.6787    -2.4675     0.6130 H       
  30 H30            4.6522     5.9238    -0.0101 H       
  31 H31            3.3465     3.5227    -0.0110 H       
  32 H32            3.8534     8.4920     0.0116 H       
  33 H33            0.3182     4.0416     0.0207 H       
  34 H34           -0.0616     8.5389     0.0498 H       
  35 H35            1.1999     9.4320     0.9327 H       
  36 H36            1.1828     9.4418    -0.8472 H       
  37 H37           -3.8874    -5.2264     2.6411 H       
  38 H38           -5.2202    -1.1830     2.9874 H       
@<TRIPOS>BOND
   1    1   19 1
   2    2   23 1
   3    3    9 1
   4    3   15 1
   5    4   13 1
   6    4   14 1
   7    5   10 2
   8    6   15 2
   9    7   10 am
  10    7   12 1
  11    7   29 1
  12    8   12 ar
  13    8   24 ar
  14    9   10 1
  15    9   11 1
  16    9   25 1
  17   11   26 1
  18   11   27 1
  19   11   28 1
  20   12   19 ar
  21   13   16 2
  22   13   17 1
  23   14   18 2
  24   14   21 1
  25   15   20 1
  26   16   18 1
  27   16   30 1
  28   17   20 2
  29   17   31 1
  30   18   32 1
  31   19   22 ar
  32   20   33 1
  33   21   34 1
  34   21   35 1
  35   21   36 1
  36   22   23 ar
  37   22   37 1
  38   23   24 ar
  39   24   38 1

#	End of record

#	Name: 6066485
#	Creating user name:	landrgr1
#	Creation time:	28. 01. 2015 13:52

#	Modifying user name:	landrgr1
#	Modification time:	28. 01. 2015 13:52

#	Program:	corina 3.48 0006  22.01.2010

@<TRIPOS>MOLECULE
6066485
  46   48    0    0    0
SMALL
NO_CHARGES


@<TRIPOS>ATOM
   1 Cl1           -0.0423     3.4952     2.1013 Cl      
   2 F2            -4.5446     5.5674    -0.8837 F       
   3 F3            -5.0131     4.9341     1.2607 F       
   4 F4            -5.7607     3.6735    -0.4918 F       
   5 O5             6.3379     1.2467    -0.0015 O.2     
   6 N6            -0.0167     1.3782     0.0096 N.pl3   
   7 N7            -2.1347     1.9197    -0.8578 N.ar    
   8 N8             8.2194     4.8580     0.0589 N.pl3   
   9 C9             0.0021    -0.0039    -0.0145 C.ar    
  10 C10            1.3468    -0.4077    -0.0234 C.ar    
  11 C11            2.1440     0.8339    -0.0029 C.2     
  12 C12            1.2515     1.8679     0.0164 C.2     
  13 C13           -1.1733     2.1599     0.0195 C.ar    
  14 C14           -0.9996    -0.9679    -0.0299 C.ar    
  15 C15            1.6690    -1.7616    -0.0479 C.ar    
  16 C16            3.6045     0.9373    -0.0031 C.2     
  17 C17           -0.6668    -2.3054    -0.0537 C.ar    
  18 C18            0.6619    -2.7026    -0.0633 C.ar    
  19 C19           -1.3051     3.1839     0.9515 C.ar    
  20 C20           -2.4581     3.9515     0.9498 C.ar    
  21 C21           -3.4414     3.6667     0.0129 C.ar    
  22 C22           -3.2430     2.6343    -0.8832 C.ar    
  23 C23            4.1970     2.1545     0.0173 C.2     
  24 C24           -4.7127     4.4749    -0.0262 C.3     
  25 C25            5.6546     2.2576     0.0171 C.2     
  26 C26            6.2752     3.5325     0.0385 C.2     
  27 C27            7.6205     3.6278     0.0383 C.2     
  28 C28            7.3991     6.0717     0.0812 C.3     
  29 C29            9.6807     4.9615     0.0587 C.3     
  30 H30            1.5136     2.9155     0.0338 H       
  31 H31           -2.0374    -0.6691    -0.0229 H       
  32 H32            2.7030    -2.0733    -0.0551 H       
  33 H33            4.2092     0.0426    -0.0195 H       
  34 H34           -1.4481    -3.0509    -0.0657 H       
  35 H35            0.9086    -3.7539    -0.0823 H       
  36 H36           -2.5890     4.7532     1.6616 H       
  37 H37           -4.0057     2.4089    -1.6138 H       
  38 H38            3.5923     3.0492     0.0338 H       
  39 H39            5.6705     4.4272     0.0549 H       
  40 H40            8.2252     2.7331     0.0218 H       
  41 H41            7.1971     6.3548     1.1143 H       
  42 H42            7.9324     6.8799    -0.4193 H       
  43 H43            6.4576     5.8834    -0.4347 H       
  44 H44           10.0417     5.0051    -0.9689 H       
  45 H45            9.9810     5.8658     0.5879 H       
  46 H46           10.1067     4.0905     0.5568 H       
@<TRIPOS>BOND
   1    1   19 1
   2    2   24 1
   3    3   24 1
   4    4   24 1
   5    5   25 2
   6    6    9 1
   7    6   12 1
   8    6   13 1
   9    7   13 ar
  10    7   22 ar
  11    8   27 1
  12    8   28 1
  13    8   29 1
  14    9   10 ar
  15    9   14 ar
  16   10   11 1
  17   10   15 ar
  18   11   12 2
  19   11   16 1
  20   12   30 1
  21   13   19 ar
  22   14   17 ar
  23   14   31 1
  24   15   18 ar
  25   15   32 1
  26   16   23 2
  27   16   33 1
  28   17   18 ar
  29   17   34 1
  30   18   35 1
  31   19   20 ar
  32   20   21 ar
  33   20   36 1
  34   21   22 ar
  35   21   24 1
  36   22   37 1
  37   23   25 1
  38   23   38 1
  39   25   26 1
  40   26   27 2
  41   26   39 1
  42   27   40 1
  43   28   41 1
  44   28   42 1
  45   28   43 1
  46   29   44 1
  47   29   45 1
  48   29   46 1

#	End of record

#	Name: 6061949
#	Creating user name:	landrgr1
#	Creation time:	28. 01. 2015 13:52

#	Modifying user name:	landrgr1
#	Modification time:	28. 01. 2015 13:52

#	Program:	corina 3.48 0006  22.01.2010

@<TRIPOS>MOLECULE
6061949
  61   63    0    0    0
SMALL
NO_CHARGES


@<TRIPOS>ATOM
   1 S1            -0.0172     1.4168     0.0098 S.o2    
   2 O2             0.0021    -0.0041     0.0020 O.2     
   3 O3             1.1617     2.2101     0.0028 O.2     
   4 O4            -5.4466    11.5297    13.1997 O.3     
   5 O5            -3.4988     5.8754     7.1631 O.3     
   6 O6            -3.0958     8.2373     8.1897 O.2     
   7 O7            -4.4954     3.8895     7.1082 O.2     
   8 N8            -0.9002     1.8797    -1.3124 N.am    
   9 N9            -4.5352     8.1041     9.8727 N.am    
  10 C10           -0.7907     3.1784    -1.9823 C.3     
  11 C11           -1.8034     3.1224    -3.1378 C.3     
  12 C12           -1.8531     1.0877    -1.9549 C.ar    
  13 C13           -2.4287     1.7499    -3.0284 C.ar    
  14 C14           -2.2697    -0.2115    -1.6578 C.ar    
  15 C15           -3.4010     1.1337    -3.7918 C.ar    
  16 C16           -0.9297     1.8941     1.4396 C.ar    
  17 C17           -3.2366    -0.8243    -2.4262 C.ar    
  18 C18           -3.8138    -0.1502    -3.4865 C.ar    
  19 C19           -1.8432     1.0170     1.9978 C.ar    
  20 C20           -0.7250     3.1422     2.0019 C.ar    
  21 C21           -2.5611     1.3831     3.1166 C.ar    
  22 C22           -1.4347     3.5229     3.1210 C.ar    
  23 C23           -2.3642     2.6446     3.6873 C.ar    
  24 C24           -3.1266     3.0435     4.8813 C.2     
  25 C25           -5.0258     9.7983    11.5670 C.3     
  26 C26           -4.1970     9.4551    10.3275 C.3     
  27 C27           -4.6726    11.2091    12.0420 C.3     
  28 C28           -2.9339     4.2613     5.4290 C.2     
  29 C29           -3.9249     7.5856     8.7886 C.2     
  30 C30           -4.2728     6.1959     8.3208 C.3     
  31 C31           -5.1918    12.8333    13.7265 C.3     
  32 C32           -3.6915     4.6577     6.6154 C.2     
  33 C33           -6.0707    13.0669    14.9570 C.3     
  34 H34           -1.0478     3.9824    -1.2928 H       
  35 H35            0.2181     3.3199    -2.3702 H       
  36 H36           -2.5614     3.8963    -3.0170 H       
  37 H37           -1.2945     3.2332    -4.0953 H       
  38 H38           -1.8324    -0.7387    -0.8228 H       
  39 H39           -3.8401     1.6561    -4.6290 H       
  40 H40           -3.5540    -1.8294    -2.1907 H       
  41 H41           -4.5744    -0.6308    -4.0840 H       
  42 H42           -1.9944     0.0433     1.5556 H       
  43 H43           -0.0071     3.8194     1.5631 H       
  44 H44           -3.2739     0.6977     3.5508 H       
  45 H45           -1.2734     4.4968     3.5591 H       
  46 H46           -3.8405     2.3614     5.3190 H       
  47 H47           -6.0862     9.7532    11.3189 H       
  48 H48           -4.8073     9.0827    12.3597 H       
  49 H49           -3.1366     9.5001    10.5756 H       
  50 H50           -4.4155    10.1706     9.5348 H       
  51 H51           -4.8910    11.9247    11.2494 H       
  52 H52           -3.6122    11.2542    12.2901 H       
  53 H53           -2.2201     4.9434     4.9914 H       
  54 H54           -5.1983     7.5829    10.3517 H       
  55 H55           -5.3332     6.1509     8.0727 H       
  56 H56           -4.0544     5.4803     9.1134 H       
  57 H57           -4.1422    12.9121    14.0096 H       
  58 H58           -5.4210    13.5826    12.9688 H       
  59 H59           -7.1204    12.9881    14.6739 H       
  60 H60           -5.8415    12.3176    15.7147 H       
  61 H61           -5.8764    14.0613    15.3588 H       
@<TRIPOS>BOND
   1    1    2 2
   2    1    3 2
   3    1    8 am
   4    1   16 1
   5    4   27 1
   6    4   31 1
   7    5   30 1
   8    5   32 1
   9    6   29 2
  10    7   32 2
  11    8   10 1
  12    8   12 1
  13    9   26 1
  14    9   29 am
  15    9   54 1
  16   10   11 1
  17   10   34 1
  18   10   35 1
  19   11   13 1
  20   11   36 1
  21   11   37 1
  22   12   13 ar
  23   12   14 ar
  24   13   15 ar
  25   14   17 ar
  26   14   38 1
  27   15   18 ar
  28   15   39 1
  29   16   19 ar
  30   16   20 ar
  31   17   18 ar
  32   17   40 1
  33   18   41 1
  34   19   21 ar
  35   19   42 1
  36   20   22 ar
  37   20   43 1
  38   21   23 ar
  39   21   44 1
  40   22   23 ar
  41   22   45 1
  42   23   24 1
  43   24   28 2
  44   24   46 1
  45   25   26 1
  46   25   27 1
  47   25   47 1
  48   25   48 1
  49   26   49 1
  50   26   50 1
  51   27   51 1
  52   27   52 1
  53   28   32 1
  54   28   53 1
  55   29   30 1
  56   30   55 1
  57   30   56 1
  58   31   33 1
  59   31   57 1
  60   31   58 1
  61   33   59 1
  62   33   60 1
  63   33   61 1

#	End of record

#	Name: 6059942
#	Creating user name:	landrgr1
#	Creation time:	28. 01. 2015 13:52

#	Modifying user name:	landrgr1
#	Modification time:	28. 01. 2015 13:52

#	Program:	corina 3.48 0006  22.01.2010

@<TRIPOS>MOLECULE
6059942
  42   44    0    0    0
SMALL
NO_CHARGES


@<TRIPOS>ATOM
   1 Br1           -8.6052    -4.8311     6.5139 Br      
   2 Cl2           -3.9454     3.4093     4.9649 Cl      
   3 Cl3           -5.7728    -0.9931    -2.5345 Cl      
   4 S4            -0.0830     1.5235     0.4031 S.o2    
   5 O5            -0.0066     0.1077     0.4973 O.2     
   6 O6             1.0567     2.3696     0.4713 O.2     
   7 O7            -6.2770    -3.5757     5.3655 O.3     
   8 O8            -2.4116    -1.0560     3.4214 O.2     
   9 N9            -0.8271     1.8568    -1.0383 N.am    
  10 N10           -3.7665     0.6460     3.8786 N.am    
  11 C11           -1.1707     2.0496     1.6855 C.ar    
  12 C12           -2.0339     1.1449     2.2719 C.ar    
  13 C13           -2.8908     1.5597     3.2830 C.ar    
  14 C14           -1.1549     3.3666     2.1074 C.ar    
  15 C15           -1.9984     1.1819    -1.3924 C.ar    
  16 C16           -2.8765     2.8850     3.7014 C.ar    
  17 C17           -2.0060     3.7837     3.1141 C.ar    
  18 C18           -3.0862     1.8892    -1.8881 C.ar    
  19 C19           -2.0750    -0.1980    -1.2547 C.ar    
  20 C20           -4.2423     1.2196    -2.2377 C.ar    
  21 C21           -3.2337    -0.8625    -1.6059 C.ar    
  22 C22           -3.4788    -0.6706     3.8643 C.2     
  23 C23           -4.3177    -0.1547    -2.0946 C.ar    
  24 C24           -4.4160    -1.6046     4.3635 C.2     
  25 C25           -4.1263    -2.9305     4.3491 C.2     
  26 C26           -5.0640    -3.8650     4.8486 C.2     
  27 C27           -4.9012    -5.2348     4.8947 C.2     
  28 C28           -6.0719    -5.7571     5.4630 C.2     
  29 C29           -6.8859    -4.7109     5.7360 C.2     
  30 H30           -2.0427     0.1158     1.9442 H       
  31 H31           -0.4499     2.5205    -1.6368 H       
  32 H32           -0.4758     4.0707     1.6498 H       
  33 H33           -1.9906     4.8127     3.4417 H       
  34 H34           -4.5808     0.9600     4.3019 H       
  35 H35           -3.0280     2.9619    -1.9998 H       
  36 H36           -1.2292    -0.7510    -0.8737 H       
  37 H37           -5.0886     1.7691    -2.6229 H       
  38 H38           -3.2937    -1.9356    -1.4993 H       
  39 H39           -5.3623    -1.2629     4.7563 H       
  40 H40           -3.1801    -3.2723     3.9564 H       
  41 H41           -4.0409    -5.7946     4.5589 H       
  42 H42           -6.2846    -6.7997     5.6479 H       
@<TRIPOS>BOND
   1    1   29 1
   2    2   16 1
   3    3   23 1
   4    4    5 2
   5    4    6 2
   6    4    9 am
   7    4   11 1
   8    7   26 1
   9    7   29 1
  10    8   22 2
  11    9   15 1
  12    9   31 1
  13   10   13 1
  14   10   22 am
  15   10   34 1
  16   11   12 ar
  17   11   14 ar
  18   12   13 ar
  19   12   30 1
  20   13   16 ar
  21   14   17 ar
  22   14   32 1
  23   15   18 ar
  24   15   19 ar
  25   16   17 ar
  26   17   33 1
  27   18   20 ar
  28   18   35 1
  29   19   21 ar
  30   19   36 1
  31   20   23 ar
  32   20   37 1
  33   21   23 ar
  34   21   38 1
  35   22   24 1
  36   24   25 2
  37   24   39 1
  38   25   26 1
  39   25   40 1
  40   26   27 2
  41   27   28 1
  42   27   41 1
  43   28   29 2
  44   28   42 1

#	End of record

#	Name: 6052865
#	Creating user name:	landrgr1
#	Creation time:	28. 01. 2015 13:52

#	Modifying user name:	landrgr1
#	Modification time:	28. 01. 2015 13:52

#	Program:	corina 3.48 0006  22.01.2010

@<TRIPOS>MOLECULE
6052865
  57   60    0    0    0
SMALL
NO_CHARGES


@<TRIPOS>ATOM
   1 S1             1.0062     0.8195    -1.0061 S.o2    
   2 O2             2.9527     5.8084    -4.6422 O.3     
   3 O3            -2.8732     1.6817    -2.9641 O.2     
   4 O4             2.2002     0.2463    -1.5209 O.2     
   5 O5             0.9977     1.8462    -0.0237 O.2     
   6 N6             0.4537     4.8234    -4.0583 N.pl3   
   7 N7            -1.5609     4.6421    -5.2428 N.2     
   8 N8            -3.2156     3.0644    -4.6830 N.am    
   9 N9            -0.2324    -0.0207    -4.4678 N.1     
  10 C10            1.6323     4.0222    -3.6921 C.3     
  11 C11            0.6238     6.2778    -4.2032 C.3     
  12 C12            2.7800     4.3893    -4.6398 C.3     
  13 C13            1.8206     6.5350    -5.1260 C.3     
  14 C14           -0.7730     4.2292    -4.2601 C.2     
  15 C15            2.4465     3.9126    -6.0549 C.3     
  16 C16            2.1418     8.0308    -5.1414 C.3     
  17 C17           -1.1997     3.1747    -3.4207 C.2     
  18 C18           -2.4655     2.5931    -3.6636 C.2     
  19 C19           -2.7527     4.0870    -5.4634 C.2     
  20 C20           -0.3787     2.7115    -2.3622 C.2     
  21 C21            0.1189     1.4495    -2.3919 C.2     
  22 C22           -3.5462     4.5664    -6.5213 C.2     
  23 C23           -4.4372     2.5096    -4.9243 C.2     
  24 C24           -4.7664     4.0049    -6.7543 C.2     
  25 C25           -5.2132     2.9581    -5.9363 C.2     
  26 C26            0.0611    -0.5115    -0.3429 C.ar    
  27 C27            0.2663    -1.7999    -0.7998 C.ar    
  28 C28           -0.8817    -0.2681     0.6384 C.ar    
  29 C29           -0.0770     0.6297    -3.5495 C.1     
  30 C30           -1.4217    -2.6000     0.6980 C.ar    
  31 C31           -0.4752    -2.8441    -0.2796 C.ar    
  32 C32           -1.6232    -1.3123     1.1587 C.ar    
  33 C33           -2.2304    -3.7383     1.2648 C.3     
  34 H34            1.9206     4.2419    -2.6641 H       
  35 H35            1.4003     2.9617    -3.7901 H       
  36 H36           -0.2761     6.7110    -4.6397 H       
  37 H37            0.8105     6.7247    -3.2267 H       
  38 H38            3.6990     3.9112    -4.3009 H       
  39 H39            1.5795     6.2032    -6.1359 H       
  40 H40            3.2609     4.1780    -6.7290 H       
  41 H41            2.3149     2.8306    -6.0522 H       
  42 H42            1.5261     4.3897    -6.3915 H       
  43 H43            2.9957     8.2124    -5.7942 H       
  44 H44            1.2783     8.5841    -5.5104 H       
  45 H45            2.3805     8.3616    -4.1306 H       
  46 H46           -0.1493     3.3630    -1.5320 H       
  47 H47           -3.1914     5.3741    -7.1444 H       
  48 H48           -4.7894     1.7024    -4.2992 H       
  49 H49           -5.3848     4.3646    -7.5633 H       
  50 H50           -6.1788     2.5086    -6.1152 H       
  51 H51            1.0057    -1.9906    -1.5636 H       
  52 H52           -1.0387     0.7378     0.9988 H       
  53 H53           -0.3154    -3.8506    -0.6371 H       
  54 H54           -2.3595    -1.1222     1.9256 H       
  55 H55           -1.7127    -4.1574     2.1276 H       
  56 H56           -3.2095    -3.3707     1.5719 H       
  57 H57           -2.3538    -4.5099     0.5050 H       
@<TRIPOS>BOND
   1    1    4 2
   2    1    5 2
   3    1   21 1
   4    1   26 1
   5    2   12 1
   6    2   13 1
   7    3   18 2
   8    6   10 1
   9    6   11 1
  10    6   14 1
  11    7   14 1
  12    7   19 2
  13    8   18 am
  14    8   19 1
  15    8   23 1
  16    9   29 3
  17   10   12 1
  18   10   34 1
  19   10   35 1
  20   11   13 1
  21   11   36 1
  22   11   37 1
  23   12   15 1
  24   12   38 1
  25   13   16 1
  26   13   39 1
  27   14   17 2
  28   15   40 1
  29   15   41 1
  30   15   42 1
  31   16   43 1
  32   16   44 1
  33   16   45 1
  34   17   18 1
  35   17   20 1
  36   19   22 1
  37   20   21 2
  38   20   46 1
  39   21   29 1
  40   22   24 2
  41   22   47 1
  42   23   25 2
  43   23   48 1
  44   24   25 1
  45   24   49 1
  46   25   50 1
  47   26   27 ar
  48   26   28 ar
  49   27   31 ar
  50   27   51 1
  51   28   32 ar
  52   28   52 1
  53   30   31 ar
  54   30   32 ar
  55   30   33 1
  56   31   53 1
  57   32   54 1
  58   33   55 1
  59   33   56 1
  60   33   57 1

#	End of record

#	Name: 6042139
#	Creating user name:	landrgr1
#	Creation time:	28. 01. 2015 13:52

#	Modifying user name:	landrgr1
#	Modification time:	28. 01. 2015 13:52

#	Program:	corina 3.48 0006  22.01.2010

@<TRIPOS>MOLECULE
6042139
  29   30    0    0    0
SMALL
NO_CHARGES


@<TRIPOS>ATOM
   1 Cl1           -1.6176     6.3965     0.0327 Cl      
   2 O2             3.4508     3.6774    -0.0058 O.2     
   3 O3             3.4769     7.6723    -0.0005 O.2     
   4 O4             4.6237     5.9017    -0.0106 O.2     
   5 N5            -0.0169     1.3968     0.0097 N.pl3   
   6 N6             0.0021    -0.0041     0.0020 N.pl3   
   7 N7             3.5391     6.4559    -0.0026 N.pl3   
   8 N8            -2.3445    -0.0630     0.0241 N.ar    
   9 C9             1.1167     3.4801     0.0101 C.2     
  10 C10            2.3685     4.2476     0.0023 C.2     
  11 C11            2.2967     5.6512     0.0046 C.2     
  12 C12           -0.1071     4.1853     0.0197 C.2     
  13 C13            1.1356     2.0833     0.0024 C.2     
  14 C14            1.0845     6.2706     0.0140 C.2     
  15 C15           -0.1046     5.5453     0.0215 C.2     
  16 C16           -1.1922    -0.7154     0.0096 C.ar    
  17 C17           -1.1661    -2.1061     0.0014 C.ar    
  18 C18           -2.3621    -2.8014     0.0091 C.ar    
  19 C19           -3.5481    -2.0797     0.0248 C.ar    
  20 C20           -3.5000    -0.6999     0.0322 C.ar    
  21 H21           -1.0426     3.6458     0.0252 H       
  22 H22            2.0781     1.5561    -0.0094 H       
  23 H23            1.0439     7.3498     0.0158 H       
  24 H24           -0.8635     1.8703     0.0163 H       
  25 H25            0.8486    -0.4776    -0.0086 H       
  26 H26           -0.2251    -2.6359    -0.0111 H       
  27 H27           -2.3730    -3.8813     0.0027 H       
  28 H28           -4.4986    -2.5924     0.0308 H       
  29 H29           -4.4201    -0.1346     0.0443 H       
@<TRIPOS>BOND
   1    1   15 1
   2    2   10 2
   3    3    7 2
   4    4    7 2
   5    5    6 1
   6    5   13 1
   7    5   24 1
   8    6   16 1
   9    6   25 1
  10    7   11 1
  11    8   16 ar
  12    8   20 ar
  13    9   10 1
  14    9   12 1
  15    9   13 2
  16   10   11 1
  17   11   14 2
  18   12   15 2
  19   12   21 1
  20   13   22 1
  21   14   15 1
  22   14   23 1
  23   16   17 ar
  24   17   18 ar
  25   17   26 1
  26   18   19 ar
  27   18   27 1
  28   19   20 ar
  29   19   28 1
  30   20   29 1

#	End of record

#	Name: 6042107
#	Creating user name:	landrgr1
#	Creation time:	28. 01. 2015 13:52

#	Modifying user name:	landrgr1
#	Modification time:	28. 01. 2015 13:52

#	Program:	corina 3.48 0006  22.01.2010

@<TRIPOS>MOLECULE
6042107
  48   53    0    0    0
SMALL
NO_CHARGES


@<TRIPOS>ATOM
   1 Cl1            5.5860    -1.3407    -0.5685 Cl      
   2 F2             2.8940     1.5600     2.6073 F       
   3 O3             6.4141     2.2327    -0.0484 O.2     
   4 N4            -0.0169     1.3973     0.0097 N.pl3   
   5 N5             1.8280     3.0378     0.0005 N.2     
   6 N6             0.0021    -0.0041     0.0020 N.pl3   
   7 N7            -1.0162     3.5231     0.0257 N.ar    
   8 C8             3.6017     0.8597    -0.0281 C.3     
   9 C9             2.0997     0.6705    -0.0144 C.2     
  10 C10            4.0837     2.2973    -0.0255 C.2     
  11 C11            1.2931     1.8285    -0.0005 C.2     
  12 C12            3.1290     3.3102    -0.0109 C.2     
  13 C13            1.3029    -0.4150    -0.0126 C.2     
  14 C14            4.1752     0.1678     1.1816 C.ar    
  15 C15            3.8511     4.6157    -0.0112 C.ar    
  16 C16            5.3653     2.8528    -0.0352 C.2     
  17 C17            5.2261     4.3337    -0.0262 C.ar    
  18 C18            1.7708    -1.8474    -0.0243 C.3     
  19 C19            5.0940    -0.8541     1.0237 C.ar    
  20 C20            3.7871     0.5584     2.4516 C.ar    
  21 C21            3.4175     5.9291    -0.0009 C.ar    
  22 C22           -1.1501     2.2057     0.0197 C.ar    
  23 C23            6.1424     5.3699    -0.0305 C.ar    
  24 C24            4.3459     6.9632    -0.0054 C.ar    
  25 C25            5.6966     6.6861    -0.0201 C.ar    
  26 C26            5.6206    -1.4886     2.1345 C.ar    
  27 C27            4.3152    -0.0779     3.5625 C.ar    
  28 C28           -2.4125     1.6225     0.0229 C.ar    
  29 C29            5.2291    -1.1021     3.4028 C.ar    
  30 C30           -3.5305     2.4379     0.0324 C.ar    
  31 C31           -2.0636     4.3248     0.0349 C.ar    
  32 C32           -3.3468     3.8138     0.0385 C.ar    
  33 H33            3.9992     0.3684    -0.9162 H       
  34 H34           -0.7764    -0.5827     0.0066 H       
  35 H35            0.9068    -2.5119    -0.0197 H       
  36 H36            2.3638    -2.0286    -0.9207 H       
  37 H37            2.3803    -2.0378     0.8591 H       
  38 H38            2.3605     6.1504     0.0102 H       
  39 H39            7.2011     5.1567    -0.0417 H       
  40 H40            4.0078     7.9889     0.0023 H       
  41 H41            6.4113     7.4957    -0.0231 H       
  42 H42            6.3377    -2.2867     2.0109 H       
  43 H43            4.0129     0.2263     4.5537 H       
  44 H44           -2.5189     0.5478     0.0177 H       
  45 H45            5.6407    -1.5981     4.2693 H       
  46 H46           -4.5235     2.0134     0.0347 H       
  47 H47           -1.9159     5.3946     0.0399 H       
  48 H48           -4.1984     4.4778     0.0456 H       
@<TRIPOS>BOND
   1    1   19 1
   2    2   20 1
   3    3   16 2
   4    4    6 1
   5    4   11 1
   6    4   22 1
   7    5   11 2
   8    5   12 1
   9    6   13 1
  10    6   34 1
  11    7   22 ar
  12    7   31 ar
  13    8    9 1
  14    8   10 1
  15    8   14 1
  16    8   33 1
  17    9   11 1
  18    9   13 2
  19   10   12 2
  20   10   16 1
  21   12   15 1
  22   13   18 1
  23   14   19 ar
  24   14   20 ar
  25   15   17 ar
  26   15   21 ar
  27   16   17 1
  28   17   23 ar
  29   18   35 1
  30   18   36 1
  31   18   37 1
  32   19   26 ar
  33   20   27 ar
  34   21   24 ar
  35   21   38 1
  36   22   28 ar
  37   23   25 ar
  38   23   39 1
  39   24   25 ar
  40   24   40 1
  41   25   41 1
  42   26   29 ar
  43   26   42 1
  44   27   29 ar
  45   27   43 1
  46   28   30 ar
  47   28   44 1
  48   29   45 1
  49   30   32 ar
  50   30   46 1
  51   31   32 ar
  52   31   47 1
  53   32   48 1

#	End of record

#	Name: 6034014
#	Creating user name:	landrgr1
#	Creation time:	28. 01. 2015 13:52

#	Modifying user name:	landrgr1
#	Modification time:	28. 01. 2015 13:52

#	Program:	corina 3.48 0006  22.01.2010

@<TRIPOS>MOLECULE
6034014
  54   57    0    0    0
SMALL
NO_CHARGES


@<TRIPOS>ATOM
   1 Br1           -3.2789     3.0915     3.1905 Br      
   2 S2            -0.9049    -1.0545     0.5059 S.3     
   3 F3            -5.5791    -2.7520     0.7715 F       
   4 F4            -5.5718    -2.7837     3.0558 F       
   5 F5            -4.4864    -4.4195     1.8872 F       
   6 O6            -5.9717     2.4980     0.0310 O.2     
   7 N7            -3.8878    -0.7934     1.9356 N.pl3   
   8 N8            -4.9443    -0.1290     1.3231 N.pl3   
   9 N9            -2.0593    -0.1444     3.2997 N.2     
  10 N10           -6.5902     2.9137     2.1232 N.am    
  11 N11          -10.8804     2.7095     1.9534 N.pl3   
  12 N12          -10.7129     2.7406     0.5630 N.2     
  13 C13           -3.5457    -2.2196     1.9147 C.3     
  14 C14           -2.7344    -2.5110     3.1869 C.3     
  15 C15           -1.5679    -1.5276     3.2910 C.3     
  16 C16           -3.1420     0.1464     2.6362 C.2     
  17 C17           -4.8231    -3.0617     1.9071 C.3     
  18 C18           -4.8891     1.2165     1.6568 C.2     
  19 C19           -3.8126     1.4339     2.4534 C.2     
  20 C20           -0.6480    -1.7209     2.1131 C.2     
  21 C21           -5.8496     2.2487     1.2145 C.2     
  22 C22            0.4853    -2.4243     2.1298 C.2     
  23 C23           -7.4784     3.9965     1.6933 C.3     
  24 C24           -8.8768     3.4612     1.5226 C.2     
  25 C25           -9.7398     3.1564     2.5193 C.2     
  26 C26            1.1658    -2.4626     0.9250 C.2     
  27 C27           -9.5118     3.1913     0.3059 C.2     
  28 C28           -6.5069     2.5538     3.5408 C.3     
  29 C29            0.5851    -1.7903    -0.0701 C.2     
  30 C30           -9.4747     3.2923     3.9966 C.3     
  31 C31           -8.9155     3.3859    -1.0643 C.3     
  32 C32          -12.0836     2.2745     2.6670 C.3     
  33 H33           -2.9464    -2.4447     1.0326 H       
  34 H34           -3.3780    -2.4039     4.0600 H       
  35 H35           -2.3476    -3.5292     3.1451 H       
  36 H36           -1.0171    -1.7193     4.2119 H       
  37 H37           -5.6130    -0.5403     0.7534 H       
  38 H38           -7.4805     4.7851     2.4458 H       
  39 H39           -7.1257     4.4007     0.7444 H       
  40 H40            0.8448    -2.9256     3.0163 H       
  41 H41            2.0965    -2.9961     0.8002 H       
  42 H42           -5.7918     3.2074     4.0403 H       
  43 H43           -7.4876     2.6677     4.0028 H       
  44 H44           -6.1795     1.5183     3.6342 H       
  45 H45            0.9708    -1.7104    -1.0757 H       
  46 H46           -9.0454     2.3649     4.3755 H       
  47 H47           -8.7766     4.1119     4.1666 H       
  48 H48          -10.4105     3.4984     4.5161 H       
  49 H49           -9.0709     4.4159    -1.3853 H       
  50 H50           -7.8469     3.1736    -1.0291 H       
  51 H51           -9.3973     2.7089    -1.7697 H       
  52 H52          -12.0211     1.2047     2.8663 H       
  53 H53          -12.1625     2.8158     3.6099 H       
  54 H54          -12.9626     2.4795     2.0558 H       
@<TRIPOS>BOND
   1    1   19 1
   2    2   20 1
   3    2   29 1
   4    3   17 1
   5    4   17 1
   6    5   17 1
   7    6   21 2
   8    7    8 1
   9    7   13 1
  10    7   16 1
  11    8   18 1
  12    8   37 1
  13    9   15 1
  14    9   16 2
  15   10   21 am
  16   10   23 1
  17   10   28 1
  18   11   12 1
  19   11   25 1
  20   11   32 1
  21   12   27 2
  22   13   14 1
  23   13   17 1
  24   13   33 1
  25   14   15 1
  26   14   34 1
  27   14   35 1
  28   15   20 1
  29   15   36 1
  30   16   19 1
  31   18   19 2
  32   18   21 1
  33   20   22 2
  34   22   26 1
  35   22   40 1
  36   23   24 1
  37   23   38 1
  38   23   39 1
  39   24   25 2
  40   24   27 1
  41   25   30 1
  42   26   29 2
  43   26   41 1
  44   27   31 1
  45   28   42 1
  46   28   43 1
  47   28   44 1
  48   29   45 1
  49   30   46 1
  50   30   47 1
  51   30   48 1
  52   31   49 1
  53   31   50 1
  54   31   51 1
  55   32   52 1
  56   32   53 1
  57   32   54 1

#	End of record

#	Name: 6026898
#	Creating user name:	landrgr1
#	Creation time:	28. 01. 2015 13:52

#	Modifying user name:	landrgr1
#	Modification time:	28. 01. 2015 13:52

#	Program:	corina 3.48 0006  22.01.2010

@<TRIPOS>MOLECULE
6026898
  35   36    0    0    0
SMALL
NO_CHARGES


@<TRIPOS>ATOM
   1 S1             0.3576     1.5380     0.4380 S.o2    
   2 S2            -7.3569    -2.9839     4.5000 S.3     
   3 O3             0.4264     0.1187     0.4374 O.2     
   4 O4             1.5013     2.3715     0.5663 O.2     
   5 O5            -3.7206    -0.3625     1.6673 O.2     
   6 N6            -3.4845     0.5166     3.6953 N.am    
   7 N7            -0.3798     1.9710    -0.9801 N.am    
   8 C8            -2.5313     1.4301     3.2351 C.ar    
   9 C9            -0.7318     1.9828     1.7494 C.ar    
  10 C10           -2.4366     2.6886     3.8147 C.ar    
  11 C11           -1.6727     1.0786     2.2010 C.ar    
  12 C12           -0.6440     3.2373     2.3251 C.ar    
  13 C13           -1.4935     3.5885     3.3579 C.ar    
  14 C14           -3.3622     3.0722     4.9404 C.3     
  15 C15           -4.0753    -0.3333     2.8322 C.2     
  16 C16           -5.1070    -1.1912     3.2790 C.2     
  17 C17           -5.7017    -2.0468     2.4101 C.2     
  18 C18           -6.7346    -2.9057     2.8574 C.2     
  19 C19           -7.4100    -3.8096     2.0796 C.2     
  20 C20           -8.3649    -4.5142     2.7728 C.2     
  21 C21           -8.4712    -4.2023     4.0702 C.2     
  22 H22           -1.7408     0.0992     1.7511 H       
  23 H23            0.0926     3.9428     1.9698 H       
  24 H24           -1.4196     4.5674     3.8080 H       
  25 H25           -2.9078     2.7999     5.8931 H       
  26 H26           -3.5379     4.1476     4.9159 H       
  27 H27           -4.3102     2.5464     4.8266 H       
  28 H28           -3.7206     0.4946     4.6359 H       
  29 H29           -0.5788     1.2971    -1.6488 H       
  30 H30           -0.6128     2.8986    -1.1421 H       
  31 H31           -5.4215    -1.1653     4.3119 H       
  32 H32           -5.3873    -2.0727     1.3772 H       
  33 H33           -7.2121    -3.9534     1.0276 H       
  34 H34           -8.9846    -5.2646     2.3048 H       
  35 H35           -9.1695    -4.6613     4.7544 H       
@<TRIPOS>BOND
   1    1    3 2
   2    1    4 2
   3    1    7 am
   4    1    9 1
   5    2   18 1
   6    2   21 1
   7    5   15 2
   8    6    8 1
   9    6   15 am
  10    6   28 1
  11    7   29 1
  12    7   30 1
  13    8   10 ar
  14    8   11 ar
  15    9   11 ar
  16    9   12 ar
  17   10   13 ar
  18   10   14 1
  19   11   22 1
  20   12   13 ar
  21   12   23 1
  22   13   24 1
  23   14   25 1
  24   14   26 1
  25   14   27 1
  26   15   16 1
  27   16   17 2
  28   16   31 1
  29   17   18 1
  30   17   32 1
  31   18   19 2
  32   19   20 1
  33   19   33 1
  34   20   21 2
  35   20   34 1
  36   21   35 1

#	End of record

#	Name: 6020063
#	Creating user name:	landrgr1
#	Creation time:	28. 01. 2015 13:52

#	Modifying user name:	landrgr1
#	Modification time:	28. 01. 2015 13:52

#	Program:	corina 3.48 0006  22.01.2010

@<TRIPOS>MOLECULE
6020063
  22   21    0    0    0
SMALL
NO_CHARGES


@<TRIPOS>ATOM
   1 O1            -3.5766    -2.2639     0.0241 O.2     
   2 O2            -0.0162     1.3433     0.0094 O.3     
   3 O3             1.0620    -0.5969    -0.0113 O.2     
   4 N4            -2.4977    -4.2048     0.0033 N.am    
   5 C5            -3.4564    -6.4548     0.0004 C.3     
   6 C6            -3.7563    -4.9545     0.0113 C.3     
   7 C7            -4.7708    -7.2377     0.0087 C.3     
   8 C8            -2.5160    -2.8572     0.0107 C.2     
   9 C9            -1.2472    -2.1014     0.0027 C.2     
  10 C10           -1.2654    -0.7590     0.0101 C.2     
  11 C11            0.0021    -0.0041     0.0020 C.2     
  12 H12           -4.3229    -4.7038     0.9081 H       
  13 H13           -4.3399    -4.6942    -0.8717 H       
  14 H14           -2.8898    -6.7055    -0.8964 H       
  15 H15           -2.8728    -6.7151     0.8835 H       
  16 H16           -5.3374    -6.9870     0.9055 H       
  17 H17           -5.3544    -6.9774    -0.8743 H       
  18 H18           -4.5572    -8.3065     0.0010 H       
  19 H19           -1.6512    -4.6783    -0.0073 H       
  20 H20           -0.3047    -2.6286    -0.0091 H       
  21 H21           -2.2079    -0.2318     0.0219 H       
  22 H22            0.8393     1.7940     0.0037 H       
@<TRIPOS>BOND
   1    1    8 2
   2    2   11 1
   3    2   22 1
   4    3   11 2
   5    4    6 1
   6    4    8 am
   7    4   19 1
   8    5    6 1
   9    5    7 1
  10    5   14 1
  11    5   15 1
  12    6   12 1
  13    6   13 1
  14    7   16 1
  15    7   17 1
  16    7   18 1
  17    8    9 1
  18    9   10 2
  19    9   20 1
  20   10   11 1
  21   10   21 1

#	End of record

#	Name: 6017578
#	Creating user name:	landrgr1
#	Creation time:	28. 01. 2015 13:52

#	Modifying user name:	landrgr1
#	Modification time:	28. 01. 2015 13:52

#	Program:	corina 3.48 0006  22.01.2010

@<TRIPOS>MOLECULE
6017578
  46   47    0    0    0
SMALL
NO_CHARGES


@<TRIPOS>ATOM
   1 O1            -0.0173     1.4248     0.0099 O.3     
   2 O2             4.9684     8.2423    -0.0068 O.3     
   3 O3             2.6342     9.6986     0.0124 O.3     
   4 O4            -3.9844    -1.1521    -0.6041 O.2     
   5 O5             2.2056     1.4051    -0.0115 O.2     
   6 N6            -2.1054    -0.1483    -1.2305 N.am    
   7 N7            -5.3221     0.6009    -5.0248 N.ar    
   8 C8            -1.4333    -0.5336     0.0129 C.3     
   9 C9             2.4837     5.5684     0.0082 C.ar    
  10 C10            0.0021    -0.0041     0.0020 C.3     
  11 C11            3.7681     7.6030     0.0012 C.ar    
  12 C12            3.7211     6.2230    -0.0001 C.ar    
  13 C13            2.5852     8.3413     0.0107 C.ar    
  14 C14            1.3008     6.3168     0.0178 C.ar    
  15 C15            1.3571     7.6930     0.0190 C.ar    
  16 C16            2.4267     4.1000     0.0009 C.2     
  17 C17           -3.3867    -0.5081    -1.4434 C.2     
  18 C18           -4.0663    -0.1185    -2.7008 C.ar    
  19 C19            1.2315     3.4703     0.0089 C.2     
  20 C20            1.1765     2.0537     0.0019 C.2     
  21 C21           -5.3949    -0.4814    -2.9417 C.ar    
  22 C22           -3.3969     0.6220    -3.6798 C.ar    
  23 C23           -5.9897    -0.0973    -4.1280 C.ar    
  24 C24           -4.0687     0.9635    -4.8376 C.ar    
  25 C25            6.1395     7.4234    -0.0164 C.3     
  26 C26            1.3853    10.3929     0.0223 C.3     
  27 H27           -1.9701    -0.1109     0.8621 H       
  28 H28           -1.4190    -1.6203     0.0965 H       
  29 H29            0.5123    -0.3556    -0.8948 H       
  30 H30            0.5293    -0.3651     0.8851 H       
  31 H31            4.6366     5.6501    -0.0071 H       
  32 H32           -1.6283     0.3658    -1.9006 H       
  33 H33            0.3444     5.8152     0.0238 H       
  34 H34            0.4438     8.2694     0.0267 H       
  35 H35            3.3403     3.5242    -0.0109 H       
  36 H36            0.3179     4.0462     0.0208 H       
  37 H37           -5.9478    -1.0536    -2.2115 H       
  38 H38           -2.3700     0.9228    -3.5329 H       
  39 H39           -7.0156    -0.3725    -4.3230 H       
  40 H40           -3.5600     1.5350    -5.5998 H       
  41 H41            6.1493     6.7931     0.8728 H       
  42 H42            6.1363     6.7951    -0.9071 H       
  43 H43            7.0261     8.0574    -0.0221 H       
  44 H44            1.5671    11.4677     0.0226 H       
  45 H45            0.8118    10.1217    -0.8640 H       
  46 H46            0.8244    10.1190     0.9159 H       
@<TRIPOS>BOND
   1    1   10 1
   2    1   20 1
   3    2   11 1
   4    2   25 1
   5    3   13 1
   6    3   26 1
   7    4   17 2
   8    5   20 2
   9    6    8 1
  10    6   17 am
  11    6   32 1
  12    7   23 ar
  13    7   24 ar
  14    8   10 1
  15    8   27 1
  16    8   28 1
  17    9   12 ar
  18    9   14 ar
  19    9   16 1
  20   10   29 1
  21   10   30 1
  22   11   12 ar
  23   11   13 ar
  24   12   31 1
  25   13   15 ar
  26   14   15 ar
  27   14   33 1
  28   15   34 1
  29   16   19 2
  30   16   35 1
  31   17   18 1
  32   18   21 ar
  33   18   22 ar
  34   19   20 1
  35   19   36 1
  36   21   23 ar
  37   21   37 1
  38   22   24 ar
  39   22   38 1
  40   23   39 1
  41   24   40 1
  42   25   41 1
  43   25   42 1
  44   25   43 1
  45   26   44 1
  46   26   45 1
  47   26   46 1

#	End of record

#	Name: 6017294
#	Creating user name:	landrgr1
#	Creation time:	28. 01. 2015 13:52

#	Modifying user name:	landrgr1
#	Modification time:	28. 01. 2015 13:52

#	Program:	corina 3.48 0006  22.01.2010

@<TRIPOS>MOLECULE
6017294
  58   61    0    0    0
SMALL
NO_CHARGES


@<TRIPOS>ATOM
   1 S1             0.3273     1.3870     0.5390 S.o2    
   2 S2            -7.0840    -2.7145     5.2604 S.2     
   3 O3            -0.5685     1.8199    -3.6802 O.3     
   4 O4             0.3985    -0.0277     0.6523 O.2     
   5 O5             1.4618     2.2343     0.6585 O.2     
   6 O6            -5.3127     1.7200     5.5477 O.2     
   7 N7            -0.3394     1.7045    -0.9432 N.am    
   8 N8            -3.6460     2.9770     4.6234 N.am    
   9 N9            -4.2374    -0.4114     3.7453 N.2     
  10 N10           -5.3257    -0.8768     4.4948 N.am    
  11 N11           -5.1355    -2.9671     3.4731 N.am    
  12 C12           -0.1077     2.9914    -1.6181 C.3     
  13 C13           -1.1806     0.7078    -1.6246 C.3     
  14 C14           -0.8268     1.9262     1.7563 C.ar    
  15 C15            0.3576     2.7090    -3.0512 C.3     
  16 C16           -0.6630     0.5366    -3.0574 C.3     
  17 C17           -2.6953     1.4851     3.1906 C.ar    
  18 C18           -2.6407     2.7964     3.6801 C.ar    
  19 C19           -1.7872     1.0548     2.2297 C.ar    
  20 C20           -0.7692     3.2234     2.2375 C.ar    
  21 C21           -1.6659     3.6597     3.1916 C.ar    
  22 C22           -3.8205     0.8238     3.8916 C.2     
  23 C23           -4.3705     1.8575     4.7897 C.2     
  24 C24           -3.8825     4.2281     5.3479 C.3     
  25 C25           -5.7933    -4.7246     1.9530 C.ar    
  26 C26           -5.6348    -4.2543     3.2504 C.ar    
  27 C27           -5.4279    -3.8480     0.7829 C.3     
  28 C28           -5.7541    -2.1458     4.3445 C.2     
  29 C29           -6.2807    -5.9983     1.7367 C.ar    
  30 C30           -5.9727    -5.0654     4.3259 C.ar    
  31 C31           -3.9318    -3.9828     0.4922 C.3     
  32 C32           -6.6110    -6.8056     2.8100 C.ar    
  33 C33           -6.4651    -6.3364     4.1025 C.ar    
  34 H34           -1.0333     3.5667    -1.6393 H       
  35 H35            0.6613     3.5517    -1.0862 H       
  36 H36           -1.1222    -0.2442    -1.0970 H       
  37 H37           -2.2142     1.0531    -1.6465 H       
  38 H38            1.3458     2.2495    -3.0292 H       
  39 H39            0.4022     3.6436    -3.6103 H       
  40 H40           -1.3527    -0.0917    -3.6210 H       
  41 H41            0.3214     0.0692    -3.0354 H       
  42 H42           -1.8328     0.0427     1.8554 H       
  43 H43           -0.0153     3.8999     1.8628 H       
  44 H44           -1.6109     4.6738     3.5591 H       
  45 H45           -4.5820     4.8469     4.7857 H       
  46 H46           -4.3016     4.0060     6.3293 H       
  47 H47           -2.9400     4.7624     5.4678 H       
  48 H48           -5.7709    -0.2857     5.1220 H       
  49 H49           -5.9976    -4.1560    -0.0938 H       
  50 H50           -5.6598    -2.8097     1.0205 H       
  51 H51           -4.3440    -2.6653     3.0005 H       
  52 H52           -6.4042    -6.3646     0.7282 H       
  53 H53           -5.8503    -4.7028     5.3358 H       
  54 H54           -3.6676    -3.3487    -0.3540 H       
  55 H55           -3.3621    -3.6747     1.3689 H       
  56 H56           -3.7000    -5.0210     0.2547 H       
  57 H57           -6.9923    -7.8013     2.6381 H       
  58 H58           -6.7281    -6.9676     4.9384 H       
@<TRIPOS>BOND
   1    1    4 2
   2    1    5 2
   3    1    7 am
   4    1   14 1
   5    2   28 2
   6    3   15 1
   7    3   16 1
   8    6   23 2
   9    7   12 1
  10    7   13 1
  11    8   18 1
  12    8   23 am
  13    8   24 1
  14    9   10 1
  15    9   22 2
  16   10   28 am
  17   10   48 1
  18   11   26 1
  19   11   28 am
  20   11   51 1
  21   12   15 1
  22   12   34 1
  23   12   35 1
  24   13   16 1
  25   13   36 1
  26   13   37 1
  27   14   19 ar
  28   14   20 ar
  29   15   38 1
  30   15   39 1
  31   16   40 1
  32   16   41 1
  33   17   18 ar
  34   17   19 ar
  35   17   22 1
  36   18   21 ar
  37   19   42 1
  38   20   21 ar
  39   20   43 1
  40   21   44 1
  41   22   23 1
  42   24   45 1
  43   24   46 1
  44   24   47 1
  45   25   26 ar
  46   25   27 1
  47   25   29 ar
  48   26   30 ar
  49   27   31 1
  50   27   49 1
  51   27   50 1
  52   29   32 ar
  53   29   52 1
  54   30   33 ar
  55   30   53 1
  56   31   54 1
  57   31   55 1
  58   31   56 1
  59   32   33 ar
  60   32   57 1
  61   33   58 1

#	End of record

#	Name: 5998992
#	Creating user name:	landrgr1
#	Creation time:	28. 01. 2015 13:52

#	Modifying user name:	landrgr1
#	Modification time:	28. 01. 2015 13:52

#	Program:	corina 3.48 0006  22.01.2010

@<TRIPOS>MOLECULE
5998992
  64   68    0    0    0
SMALL
NO_CHARGES


@<TRIPOS>ATOM
   1 O1            -0.1819     1.0335     0.1404 O.3     
   2 O2            -4.3467    -1.3281     0.5230 O.2     
   3 O3            -3.6433     2.1240    -1.1984 O.2     
   4 N4            -2.6489    -0.3895    -0.5608 N.am    
   5 N5            -4.4720     0.5491    -2.5275 N.am    
   6 N6            -8.1197     1.2633    -3.8612 N.pl3   
   7 N7            -9.1683     0.6686    -3.1538 N.2     
   8 N8            -9.6197    -2.7090     0.2266 N.ar    
   9 C9            -0.2826    -0.4049     0.0572 C.3     
  10 C10            0.7513    -0.9325     1.0765 C.3     
  11 C11            1.7700     0.2215     1.2096 C.3     
  12 C12            1.2310     1.3099     0.2550 C.3     
  13 C13           -1.6909    -0.8632     0.4413 C.3     
  14 C14           -3.9592    -0.6759    -0.4288 C.2     
  15 C15           -4.9180    -0.2018    -1.4317 C.2     
  16 C16           -7.2145     0.1132    -2.2124 C.2     
  17 C17           -6.2354    -0.4897    -1.2990 C.2     
  18 C18           -8.6736    -0.0306    -2.1567 C.2     
  19 C19           -6.9444     0.9287    -3.2942 C.2     
  20 C20           -9.4443    -0.8160    -1.1637 C.ar    
  21 C21           -8.2680     2.0780    -4.9909 C.ar    
  22 C22           -3.8693     1.7382    -2.3291 C.2     
  23 C23          -10.6941    -0.3713    -0.7211 C.ar    
  24 C24           -9.5360     2.4402    -5.4261 C.ar    
  25 C25           -7.1470     2.5299    -5.6748 C.ar    
  26 C26           -3.4830     2.5732    -3.4860 C.ar    
  27 C27           -8.9354    -2.0103    -0.6560 C.ar    
  28 C28           -9.6788     3.2436    -6.5403 C.ar    
  29 C29           -7.2965     3.3331    -6.7884 C.ar    
  30 C30          -11.3738    -1.1412     0.2066 C.ar    
  31 C31           -8.5608     3.6873    -7.2225 C.ar    
  32 C32           -2.7866     3.7666    -3.2878 C.ar    
  33 C33           -3.8081     2.1689    -4.7819 C.ar    
  34 C34          -10.8007    -2.3149     0.6620 C.ar    
  35 C35           -2.4287     4.5409    -4.3720 C.ar    
  36 C36           -3.4442     2.9526    -5.8573 C.ar    
  37 C37           -2.7590     4.1372    -5.6535 C.ar    
  38 H38           -0.0327    -0.7453    -0.9476 H       
  39 H39            0.2740    -1.1331     2.0357 H       
  40 H40            1.2387    -1.8302     0.6962 H       
  41 H41            1.7963     0.5915     2.2346 H       
  42 H42            2.7610    -0.1057     0.8951 H       
  43 H43            1.7131     1.2325    -0.7195 H       
  44 H44            1.3905     2.3007     0.6805 H       
  45 H45           -1.9530    -0.4535     1.4167 H       
  46 H46           -1.7194    -1.9520     0.4850 H       
  47 H47           -2.3401     0.1303    -1.3194 H       
  48 H48           -6.5654    -1.1627    -0.5214 H       
  49 H49           -5.9656     1.2421    -3.6261 H       
  50 H50           -4.5969     0.2131    -3.4288 H       
  51 H51          -11.1179     0.5497    -1.0934 H       
  52 H52          -10.4096     2.0937    -4.8939 H       
  53 H53           -6.1594     2.2540    -5.3360 H       
  54 H54           -7.9715    -2.3658    -0.9890 H       
  55 H55          -10.6648     3.5253    -6.8795 H       
  56 H56           -6.4251     3.6851    -7.3205 H       
  57 H57          -12.3411    -0.8288     0.5713 H       
  58 H58           -8.6751     4.3151    -8.0938 H       
  59 H59           -2.5288     4.0831    -2.2880 H       
  60 H60           -4.3429     1.2444    -4.9424 H       
  61 H61          -11.3285    -2.9180     1.3860 H       
  62 H62           -1.8899     5.4645    -4.2201 H       
  63 H63           -3.6951     2.6410    -6.8605 H       
  64 H64           -2.4768     4.7473    -6.4989 H       
@<TRIPOS>BOND
   1    1    9 1
   2    1   12 1
   3    2   14 2
   4    3   22 2
   5    4   13 1
   6    4   14 am
   7    4   47 1
   8    5   15 1
   9    5   22 am
  10    5   50 1
  11    6    7 1
  12    6   19 1
  13    6   21 1
  14    7   18 2
  15    8   27 ar
  16    8   34 ar
  17    9   10 1
  18    9   13 1
  19    9   38 1
  20   10   11 1
  21   10   39 1
  22   10   40 1
  23   11   12 1
  24   11   41 1
  25   11   42 1
  26   12   43 1
  27   12   44 1
  28   13   45 1
  29   13   46 1
  30   14   15 1
  31   15   17 2
  32   16   17 1
  33   16   18 1
  34   16   19 2
  35   17   48 1
  36   18   20 1
  37   19   49 1
  38   20   23 ar
  39   20   27 ar
  40   21   24 ar
  41   21   25 ar
  42   22   26 1
  43   23   30 ar
  44   23   51 1
  45   24   28 ar
  46   24   52 1
  47   25   29 ar
  48   25   53 1
  49   26   32 ar
  50   26   33 ar
  51   27   54 1
  52   28   31 ar
  53   28   55 1
  54   29   31 ar
  55   29   56 1
  56   30   34 ar
  57   30   57 1
  58   31   58 1
  59   32   35 ar
  60   32   59 1
  61   33   36 ar
  62   33   60 1
  63   34   61 1
  64   35   37 ar
  65   35   62 1
  66   36   37 ar
  67   36   63 1
  68   37   64 1

#	End of record

#	Name: 5987619
#	Creating user name:	landrgr1
#	Creation time:	28. 01. 2015 13:52

#	Modifying user name:	landrgr1
#	Modification time:	28. 01. 2015 13:52

#	Program:	corina 3.48 0006  22.01.2010

@<TRIPOS>MOLECULE
5987619
  60   62    0    0    0
SMALL
NO_CHARGES


@<TRIPOS>ATOM
   1 S1             0.7311    -0.0225     0.2369 S.o2    
   2 O2            -0.4715     1.1351    -3.7638 O.3     
   3 O3             0.4336    -1.4118     0.2128 O.2     
   4 O4             2.0567     0.4880     0.2745 O.2     
   5 O5             0.6965     2.8147     1.1030 O.3     
   6 O6            -4.2800    -0.3739     7.4695 O.3     
   7 O7            -3.7217    -2.0743     6.1509 O.2     
   8 O8            -9.0808     1.5826    14.2832 O.3     
   9 O9            -5.4869     0.6532     9.5392 O.2     
  10 N10            0.0158     0.6322    -1.1055 N.am    
  11 N11           -6.4022    -1.2064    10.3307 N.am    
  12 C12            0.5078     1.8906    -1.6884 C.3     
  13 C13           -1.1303    -0.0275    -1.7510 C.3     
  14 C14            0.7214     1.6763    -3.1912 C.3     
  15 C15           -0.8369    -0.1483    -3.2507 C.3     
  16 C16           -0.0971     0.6393     1.6443 C.ar    
  17 C17           -0.0186     1.9997     1.9195 C.ar    
  18 C18           -0.8253    -0.1908     2.4664 C.ar    
  19 C19           -1.4827     0.3362     3.5842 C.ar    
  20 C20           -0.6698     2.5283     3.0285 C.ar    
  21 C21           -1.3958     1.7062     3.8600 C.ar    
  22 C22           -2.2619    -0.5452     4.4649 C.2     
  23 C23            0.7356     4.2019     1.4435 C.3     
  24 C24           -2.8954    -0.0341     5.5430 C.2     
  25 C25           -3.6472    -0.8844     6.3927 C.2     
  26 C26           -5.0190    -1.2884     8.2817 C.3     
  27 C27           -7.0810    -0.4997    11.3322 C.ar    
  28 C28           -5.6522    -0.5433     9.4284 C.2     
  29 C29           -7.5782     0.7700    11.0709 C.ar    
  30 C30           -7.2616    -1.0711    12.5847 C.ar    
  31 C31           -8.4222     0.8968    13.3113 C.ar    
  32 C32           -8.2471     1.4660    12.0584 C.ar    
  33 C33           -7.9306    -0.3741    13.5713 C.ar    
  34 C34           -9.2247     0.9361    15.5495 C.3     
  35 H35           -0.2270     2.6801    -1.5310 H       
  36 H36            1.4517     2.1681    -1.2193 H       
  37 H37           -1.2711    -1.0201    -1.3233 H       
  38 H38           -2.0301     0.5689    -1.5999 H       
  39 H39            1.5472     0.9819    -3.3462 H       
  40 H40            0.9528     2.6299    -3.6657 H       
  41 H41           -1.7266    -0.5074    -3.7680 H       
  42 H42           -0.0168    -0.8494    -3.4059 H       
  43 H43           -0.8896    -1.2468     2.2491 H       
  44 H44           -0.6057     3.5859     3.2379 H       
  45 H45           -1.9014     2.1178     4.7210 H       
  46 H46           -2.3280    -1.6016     4.2502 H       
  47 H47            1.1752     4.3207     2.4339 H       
  48 H48            1.3389     4.7389     0.7115 H       
  49 H49           -0.2773     4.6044     1.4450 H       
  50 H50           -2.8293     1.0223     5.7577 H       
  51 H51           -5.7968    -1.7606     7.6816 H       
  52 H52           -4.3469    -2.0527     8.6720 H       
  53 H53           -6.4721    -2.1729    10.2868 H       
  54 H54           -7.4417     1.2134    10.0956 H       
  55 H55           -6.8792    -2.0607    12.7871 H       
  56 H56           -8.6336     2.4538    11.8554 H       
  57 H57           -8.0711    -0.8184    14.5456 H       
  58 H58           -9.7778     0.0056    15.4216 H       
  59 H59           -8.2389     0.7193    15.9608 H       
  60 H60           -9.7673     1.5904    16.2319 H       
@<TRIPOS>BOND
   1    1    3 2
   2    1    4 2
   3    1   10 am
   4    1   16 1
   5    2   14 1
   6    2   15 1
   7    5   17 1
   8    5   23 1
   9    6   25 1
  10    6   26 1
  11    7   25 2
  12    8   31 1
  13    8   34 1
  14    9   28 2
  15   10   12 1
  16   10   13 1
  17   11   27 1
  18   11   28 am
  19   11   53 1
  20   12   14 1
  21   12   35 1
  22   12   36 1
  23   13   15 1
  24   13   37 1
  25   13   38 1
  26   14   39 1
  27   14   40 1
  28   15   41 1
  29   15   42 1
  30   16   17 ar
  31   16   18 ar
  32   17   20 ar
  33   18   19 ar
  34   18   43 1
  35   19   21 ar
  36   19   22 1
  37   20   21 ar
  38   20   44 1
  39   21   45 1
  40   22   24 2
  41   22   46 1
  42   23   47 1
  43   23   48 1
  44   23   49 1
  45   24   25 1
  46   24   50 1
  47   26   28 1
  48   26   51 1
  49   26   52 1
  50   27   29 ar
  51   27   30 ar
  52   29   32 ar
  53   29   54 1
  54   30   33 ar
  55   30   55 1
  56   31   32 ar
  57   31   33 ar
  58   32   56 1
  59   33   57 1
  60   34   58 1
  61   34   59 1
  62   34   60 1

#	End of record

#	Name: 5982178
#	Creating user name:	landrgr1
#	Creation time:	28. 01. 2015 13:52

#	Modifying user name:	landrgr1
#	Modification time:	28. 01. 2015 13:52

#	Program:	corina 3.48 0006  22.01.2010

@<TRIPOS>MOLECULE
5982178
  40   42    0    0    0
SMALL
NO_CHARGES


@<TRIPOS>ATOM
   1 Cl1           -9.4903    -0.9802     2.6851 Cl      
   2 Cl2            2.9448     2.5756    -0.6021 Cl      
   3 S3             0.2736     1.1112    -0.5894 S.3     
   4 S4            -3.5337    -2.7864     0.6524 S.2     
   5 O5            -1.1233    -2.2966     0.7822 O.3     
   6 N6            -2.4877     1.0619     0.7010 N.ar    
   7 N7            -4.8117    -0.4582     0.6789 N.am    
   8 C8            -2.4230    -0.3120     0.6844 C.2     
   9 C9            -5.9861    -1.2103     0.7734 C.ar    
  10 C10           -7.0274    -0.7758     1.5829 C.ar    
  11 C11           -3.6142    -1.0764     0.6732 C.2     
  12 C12           -1.1896    -0.9488     0.6785 C.2     
  13 C13           -6.1163    -2.3913     0.0531 C.ar    
  14 C14           -8.1876    -1.5219     1.6736 C.ar    
  15 C15           -2.9961     1.6994    -0.3458 C.ar    
  16 C16           -2.0452     1.7185     1.7658 C.ar    
  17 C17            0.0005    -0.1874     0.5640 C.2     
  18 C18           -6.8926     0.5072     2.3618 C.3     
  19 C19           -7.2777    -3.1322     0.1479 C.ar    
  20 C20           -8.3112    -2.7005     0.9591 C.ar    
  21 C21           -3.0755     3.0766    -0.3611 C.ar    
  22 C22           -2.0960     3.0963     1.8149 C.ar    
  23 C23           -2.6167     3.7945     0.7344 C.ar    
  24 C24            1.1223    -0.3458     1.3338 C.2     
  25 C25            2.1319     0.5280     1.0075 C.2     
  26 C26            1.8505     1.3733     0.0067 C.2     
  27 H27           -4.8587     0.5087     0.6173 H       
  28 H28           -5.3098    -2.7294    -0.5807 H       
  29 H29           -3.3512     1.1342    -1.1948 H       
  30 H30           -1.6413     1.1686     2.6030 H       
  31 H31           -7.2572     1.3386     1.7586 H       
  32 H32           -7.4784     0.4390     3.2785 H       
  33 H33           -5.8445     0.6720     2.6119 H       
  34 H34           -7.3791    -4.0500    -0.4122 H       
  35 H35           -9.2183    -3.2822     1.0316 H       
  36 H36           -3.4896     3.5903    -1.2161 H       
  37 H37           -1.7341     3.6255     2.6839 H       
  38 H38           -2.6675     4.8732     0.7475 H       
  39 H39            1.2052    -1.0831     2.1186 H       
  40 H40            3.0823     0.5331     1.5205 H       
@<TRIPOS>BOND
   1    1   14 1
   2    2   26 1
   3    3   17 1
   4    3   26 1
   5    4   11 2
   6    5   12 1
   7    6    8 1
   8    6   15 ar
   9    6   16 ar
  10    7    9 1
  11    7   11 am
  12    7   27 1
  13    8   11 1
  14    8   12 2
  15    9   10 ar
  16    9   13 ar
  17   10   14 ar
  18   10   18 1
  19   12   17 1
  20   13   19 ar
  21   13   28 1
  22   14   20 ar
  23   15   21 ar
  24   15   29 1
  25   16   22 ar
  26   16   30 1
  27   17   24 2
  28   18   31 1
  29   18   32 1
  30   18   33 1
  31   19   20 ar
  32   19   34 1
  33   20   35 1
  34   21   23 ar
  35   21   36 1
  36   22   23 ar
  37   22   37 1
  38   23   38 1
  39   24   25 1
  40   24   39 1
  41   25   26 2
  42   25   40 1

#	End of record

#	Name: 5976150
#	Creating user name:	landrgr1
#	Creation time:	28. 01. 2015 13:52

#	Modifying user name:	landrgr1
#	Modification time:	28. 01. 2015 13:52

#	Program:	corina 3.48 0006  22.01.2010

@<TRIPOS>MOLECULE
5976150
  70   74    0    0    0
SMALL
NO_CHARGES


@<TRIPOS>ATOM
   1 S1             1.2003     1.2730    -0.3495 S.o2    
   2 O2             1.3302    -0.1400    -0.4260 O.2     
   3 O3             2.3483     2.0981    -0.4934 O.2     
   4 O4            -1.0847     6.7720    -2.5306 O.3     
   5 O5            -0.1113     4.6520    -1.3449 O.2     
   6 O6            -2.7432     7.9104    -3.4687 O.2     
   7 N7            -1.9544     3.4182    -1.2942 N.am    
   8 N8             0.9801    11.1928    -3.9217 N.ar    
   9 C9            -1.2534     2.3183    -0.6270 C.3     
  10 C10           -0.0944     1.8268    -1.5169 C.3     
  11 C11           -0.6710     2.8101     0.7162 C.3     
  12 C12            0.3213     1.7194     1.1957 C.3     
  13 C13           -3.3779     3.2911    -1.6163 C.3     
  14 C14           -0.6402    10.8170    -0.1064 C.3     
  15 C15           -1.2898     4.5468    -1.6116 C.2     
  16 C16           -1.3021     9.9698    -1.1897 C.3     
  17 C17           -0.4698    12.2529    -0.6190 C.3     
  18 C18           -0.5399    10.0455    -2.4834 C.ar    
  19 C19            0.4892    12.2072    -1.7892 C.2     
  20 C20            0.3160    11.1213    -2.7801 C.ar    
  21 C21           -4.2142     3.8087    -0.4443 C.3     
  22 C22           -2.0109     5.6782    -2.2979 C.3     
  23 C23           -0.6898     9.0217    -3.4100 C.ar    
  24 C24           -1.5193    10.8227     1.1458 C.3     
  25 C25            0.0594     9.1252    -4.6624 C.ar    
  26 C26            0.8920    10.2553    -4.8640 C.ar    
  27 C27           -1.5745     7.8689    -3.1404 C.2     
  28 C28            1.4646    13.1218    -1.9242 C.2     
  29 C29           -0.0302     8.1420    -5.6524 C.ar    
  30 C30            1.6151    10.3624    -6.0666 C.ar    
  31 C31            1.5113    14.2874    -1.0241 C.ar    
  32 C32            0.6869     8.2783    -6.8048 C.ar    
  33 C33            1.5050     9.3866    -7.0094 C.ar    
  34 C34            2.7407    14.8374    -0.6505 C.ar    
  35 C35            0.3262    14.8521    -0.5444 C.ar    
  36 C36            2.7763    15.9287     0.1919 C.ar    
  37 C37            0.3778    15.9433     0.2973 C.ar    
  38 C38            1.5989    16.4792     0.6671 C.ar    
  39 H39           -1.9481     1.4985    -0.4441 H       
  40 H40            0.2786     2.6419    -2.1370 H       
  41 H41           -0.4225     0.9953    -2.1406 H       
  42 H42           -0.1446     3.7536     0.5718 H       
  43 H43           -1.4707     2.9362     1.4461 H       
  44 H44           -0.2140     0.8596     1.5985 H       
  45 H45            1.0151     2.1244     1.9323 H       
  46 H46           -3.6021     3.8756    -2.5087 H       
  47 H47           -3.6171     2.2435    -1.7986 H       
  48 H48            0.3368    10.3989     0.1362 H       
  49 H49           -1.3401     8.9322    -0.8580 H       
  50 H50           -2.3183    10.3288    -1.3525 H       
  51 H51           -1.4327    12.6465    -0.9447 H       
  52 H52           -0.0599    12.8819     0.1712 H       
  53 H53           -2.8295     6.0235    -1.6664 H       
  54 H54           -2.4091     5.3302    -3.2510 H       
  55 H55           -5.2733     3.7142    -0.6840 H       
  56 H56           -3.9901     3.2242     0.4480 H       
  57 H57           -3.9750     4.8564    -0.2620 H       
  58 H58           -1.6426     9.8020     1.5079 H       
  59 H59           -1.0462    11.4279     1.9191 H       
  60 H60           -2.4955    11.2423     0.9025 H       
  61 H61            2.2143    13.0024    -2.6924 H       
  62 H62           -0.6622     7.2787    -5.5048 H       
  63 H63            2.2543    11.2153    -6.2409 H       
  64 H64            0.6177     7.5182    -7.5690 H       
  65 H65            2.0619     9.4729    -7.9307 H       
  66 H66            3.6603    14.4086    -1.0203 H       
  67 H67           -0.6276    14.4352    -0.8325 H       
  68 H68            3.7255    16.3546     0.4818 H       
  69 H69           -0.5371    16.3810     0.6685 H       
  70 H70            1.6331    17.3338     1.3265 H       
@<TRIPOS>BOND
   1    1    2 2
   2    1    3 2
   3    1   10 1
   4    1   12 1
   5    4   22 1
   6    4   27 1
   7    5   15 2
   8    6   27 2
   9    7    9 1
  10    7   13 1
  11    7   15 am
  12    8   20 ar
  13    8   26 ar
  14    9   10 1
  15    9   11 1
  16    9   39 1
  17   10   40 1
  18   10   41 1
  19   11   12 1
  20   11   42 1
  21   11   43 1
  22   12   44 1
  23   12   45 1
  24   13   21 1
  25   13   46 1
  26   13   47 1
  27   14   16 1
  28   14   17 1
  29   14   24 1
  30   14   48 1
  31   15   22 1
  32   16   18 1
  33   16   49 1
  34   16   50 1
  35   17   19 1
  36   17   51 1
  37   17   52 1
  38   18   20 ar
  39   18   23 ar
  40   19   20 1
  41   19   28 2
  42   21   55 1
  43   21   56 1
  44   21   57 1
  45   22   53 1
  46   22   54 1
  47   23   25 ar
  48   23   27 1
  49   24   58 1
  50   24   59 1
  51   24   60 1
  52   25   26 ar
  53   25   29 ar
  54   26   30 ar
  55   28   31 1
  56   28   61 1
  57   29   32 ar
  58   29   62 1
  59   30   33 ar
  60   30   63 1
  61   31   34 ar
  62   31   35 ar
  63   32   33 ar
  64   32   64 1
  65   33   65 1
  66   34   36 ar
  67   34   66 1
  68   35   37 ar
  69   35   67 1
  70   36   38 ar
  71   36   68 1
  72   37   38 ar
  73   37   69 1
  74   38   70 1

#	End of record

#	Name: 5963697
#	Creating user name:	landrgr1
#	Creation time:	28. 01. 2015 13:52

#	Modifying user name:	landrgr1
#	Modification time:	28. 01. 2015 13:52

#	Program:	corina 3.48 0006  22.01.2010

@<TRIPOS>MOLECULE
5963697
  48   50    0    0    0
SMALL
NO_CHARGES


@<TRIPOS>ATOM
   1 S1             0.5039    -2.6680    -1.1964 S.2     
   2 O2            -0.9456    -2.3114     0.8024 O.3     
   3 O3            -5.4259    -0.2005     4.6762 O.2     
   4 O4            -5.7987    -0.4864     2.6195 O.2     
   5 N5            -0.1997     1.1270    -0.0564 N.ar    
   6 N6             1.2033    -0.2619    -2.0773 N.am    
   7 N7            -5.0311    -0.2099     3.5240 N.pl3   
   8 C8            -0.2116    -0.2489    -0.0959 C.2     
   9 C9            -1.6248    -0.2483     1.9318 C.ar    
  10 C10           -0.9125    -0.9604     0.8563 C.2     
  11 C11           -2.9636     1.0896     3.9542 C.ar    
  12 C12           -2.9588    -0.5560     2.2143 C.ar    
  13 C13           -3.6187     0.1146     3.2228 C.ar    
  14 C14            1.8207    -0.9326    -3.1370 C.ar    
  15 C15            0.5188    -0.9568    -1.1473 C.2     
  16 C16           -0.9680     0.7345     2.6787 C.ar    
  17 C17           -1.6410     1.3961     3.6838 C.ar    
  18 C18            1.7658    -0.4053    -4.4211 C.ar    
  19 C19            0.9331     1.7572     0.2259 C.ar    
  20 C20           -1.3200     1.7920    -0.3069 C.ar    
  21 C21            2.4952    -2.1248    -2.9074 C.ar    
  22 C22           -3.6919     1.8176     5.0545 C.3     
  23 C23            2.3771    -1.0702    -5.4655 C.ar    
  24 C24            1.0395     0.8907    -4.6740 C.3     
  25 C25            0.9793     3.1352     0.2739 C.ar    
  26 C26           -1.3424     3.1711    -0.2756 C.ar    
  27 C27            3.1045    -2.7848    -3.9567 C.ar    
  28 C28            3.0436    -2.2599    -5.2344 C.ar    
  29 C29           -0.1761     3.8615     0.0225 C.ar    
  30 H30           -3.4716    -1.3165     1.6441 H       
  31 H31            0.0640     0.9744     2.4692 H       
  32 H32           -1.1364     2.1586     4.2586 H       
  33 H33            1.2676     0.7038    -2.0113 H       
  34 H34            1.8284     1.1854     0.4205 H       
  35 H35           -2.2239     1.2480    -0.5382 H       
  36 H36            2.5435    -2.5352    -1.9096 H       
  37 H37           -3.5411     1.2938     5.9984 H       
  38 H38           -3.3047     2.8332     5.1366 H       
  39 H39           -4.7568     1.8523     4.8243 H       
  40 H40            2.3346    -0.6609    -6.4641 H       
  41 H41            1.7324     1.7241    -4.5581 H       
  42 H42            0.6378     0.8904    -5.6873 H       
  43 H43            0.2230     0.9950    -3.9595 H       
  44 H44            1.9041     3.6429     0.5050 H       
  45 H45           -2.2573     3.7072    -0.4803 H       
  46 H46            3.6295    -3.7117    -3.7788 H       
  47 H47            3.5206    -2.7781    -6.0531 H       
  48 H48           -0.1669     4.9410     0.0541 H       
@<TRIPOS>BOND
   1    1   15 2
   2    2   10 1
   3    3    7 2
   4    4    7 2
   5    5    8 1
   6    5   19 ar
   7    5   20 ar
   8    6   14 1
   9    6   15 am
  10    6   33 1
  11    7   13 1
  12    8   10 2
  13    8   15 1
  14    9   10 1
  15    9   12 ar
  16    9   16 ar
  17   11   13 ar
  18   11   17 ar
  19   11   22 1
  20   12   13 ar
  21   12   30 1
  22   14   18 ar
  23   14   21 ar
  24   16   17 ar
  25   16   31 1
  26   17   32 1
  27   18   23 ar
  28   18   24 1
  29   19   25 ar
  30   19   34 1
  31   20   26 ar
  32   20   35 1
  33   21   27 ar
  34   21   36 1
  35   22   37 1
  36   22   38 1
  37   22   39 1
  38   23   28 ar
  39   23   40 1
  40   24   41 1
  41   24   42 1
  42   24   43 1
  43   25   29 ar
  44   25   44 1
  45   26   29 ar
  46   26   45 1
  47   27   28 ar
  48   27   46 1
  49   28   47 1
  50   29   48 1

#	End of record

#	Name: 5961350
#	Creating user name:	landrgr1
#	Creation time:	28. 01. 2015 13:52

#	Modifying user name:	landrgr1
#	Modification time:	28. 01. 2015 13:52

#	Program:	corina 3.48 0006  22.01.2010

@<TRIPOS>MOLECULE
5961350
  39   40    0    0    0
SMALL
NO_CHARGES


@<TRIPOS>ATOM
   1 S1            -2.5079     1.0018    -0.1971 S.2     
   2 O2             2.2986     1.6909    -0.1291 O.2     
   3 O3            -0.5040     5.4249    -0.2544 O.2     
   4 O4             1.8551     8.4946     0.0898 O.2     
   5 N5             0.0772     1.4667    -0.1569 N.am    
   6 N6            -1.3397     3.3545    -0.2256 N.am    
   7 N7             2.0078     5.8455    -0.0904 N.pl3   
   8 N8             3.1159     6.6942    -0.2116 N.am    
   9 C9             0.1890     0.0064    -0.1227 C.3     
  10 C10           -0.3185    -0.7697    -1.3396 C.3     
  11 C11            1.1848    -0.6485    -1.0821 C.3     
  12 C12            1.2004     2.2138    -0.1572 C.2     
  13 C13           -1.1387     2.0296    -0.1927 C.2     
  14 C14            1.0612     3.6808    -0.1919 C.2     
  15 C15           -0.3086     4.2243    -0.2240 C.2     
  16 C16            2.1666     4.5105    -0.1939 C.2     
  17 C17            3.6975    10.3951    -0.0828 C.3     
  18 C18            4.1490     8.9415    -0.2386 C.3     
  19 C19            4.9076    11.3219    -0.2152 C.3     
  20 C20            2.9571     8.0286    -0.1082 C.2     
  21 C21            4.4561    12.7755    -0.0594 C.3     
  22 H22            0.0578    -0.4523     0.8574 H       
  23 H23           -0.7833    -1.7391    -1.1603 H       
  24 H24           -0.7357    -0.1937    -2.1657 H       
  25 H25            1.7566     0.0072    -1.7387 H       
  26 H26            1.7090    -1.5383    -0.7333 H       
  27 H27           -2.2474     3.6956    -0.2506 H       
  28 H28            3.1576     4.0895    -0.2783 H       
  29 H29            2.9699    10.6346    -0.8582 H       
  30 H30            3.2415    10.5308     0.8979 H       
  31 H31            4.6051     8.8058    -1.2192 H       
  32 H32            4.8767     8.7020     0.5368 H       
  33 H33            5.6353    11.0824     0.5602 H       
  34 H34            5.3637    11.1862    -1.1959 H       
  35 H35            1.1264     6.2182     0.0680 H       
  36 H36            3.9973     6.3214    -0.3700 H       
  37 H37            4.0001    12.9112     0.9212 H       
  38 H38            5.3182    13.4358    -0.1537 H       
  39 H39            3.7285    13.0150    -0.8348 H       
@<TRIPOS>BOND
   1    1   13 2
   2    2   12 2
   3    3   15 2
   4    4   20 2
   5    5    9 1
   6    5   12 am
   7    5   13 am
   8    6   13 am
   9    6   15 am
  10    6   27 1
  11    7    8 1
  12    7   16 1
  13    7   35 1
  14    8   20 am
  15    8   36 1
  16    9   10 1
  17    9   11 1
  18    9   22 1
  19   10   11 1
  20   10   23 1
  21   10   24 1
  22   11   25 1
  23   11   26 1
  24   12   14 1
  25   14   15 1
  26   14   16 2
  27   16   28 1
  28   17   18 1
  29   17   19 1
  30   17   29 1
  31   17   30 1
  32   18   20 1
  33   18   31 1
  34   18   32 1
  35   19   21 1
  36   19   33 1
  37   19   34 1
  38   21   37 1
  39   21   38 1
  40   21   39 1

#	End of record

#	Name: 5954753
#	Creating user name:	landrgr1
#	Creation time:	28. 01. 2015 13:52

#	Modifying user name:	landrgr1
#	Modification time:	28. 01. 2015 13:52

#	Program:	corina 3.48 0006  22.01.2010

@<TRIPOS>MOLECULE
5954753
  44   46    0    0    0
SMALL
NO_CHARGES


@<TRIPOS>ATOM
   1 S1            -0.0157     1.4213     0.0102 S.o2    
   2 S2            -0.7783     3.4541     2.2591 S.3     
   3 O3            -0.0010     0.0004     0.0055 O.2     
   4 O4             1.1657     2.2108     0.0003 O.2     
   5 O5            -1.9871     3.6360    -5.5007 O.2     
   6 O6            -6.5834     1.8542   -11.0291 O.2     
   7 O7            -7.4918    -0.0492   -11.0812 O.2     
   8 N8            -0.8986     1.8842    -1.3122 N.am    
   9 N9            -1.3661     2.1250    -3.9944 N.am    
  10 N10           -6.7463     0.7494   -10.5427 N.pl3   
  11 C11           -0.7068     3.2121    -1.9121 C.3     
  12 C12           -1.8835     0.9722    -1.9106 C.3     
  13 C13           -0.3772     3.0349    -3.3994 C.3     
  14 C14           -1.5514     0.7998    -3.3979 C.3     
  15 C15           -2.0846     2.5017    -5.0707 C.2     
  16 C16           -0.9253     1.9047     1.4398 C.2     
  17 C17           -2.9826     1.5463    -5.7225 C.2     
  18 C18           -1.8312     1.1519     2.0657 C.2     
  19 C19           -2.4195     1.7443     3.1699 C.2     
  20 C20           -1.9912     2.9783     3.4405 C.2     
  21 C21           -3.6244     1.8904    -6.8569 C.2     
  22 C22           -4.5271     0.9298    -7.5122 C.ar    
  23 C23           -5.1946     1.2830    -8.6889 C.ar    
  24 C24           -4.7170    -0.3428    -6.9642 C.ar    
  25 C25           -6.0383     0.3774    -9.2972 C.ar    
  26 C26           -5.5637    -1.2370    -7.5840 C.ar    
  27 C27           -6.2251    -0.8780    -8.7459 C.ar    
  28 H28           -1.6209     3.7964    -1.8070 H       
  29 H29            0.1165     3.7234    -1.4133 H       
  30 H30           -1.8370     0.0046    -1.4108 H       
  31 H31           -2.8833     1.3934    -1.8054 H       
  32 H32            0.6214     2.6120    -3.5088 H       
  33 H33           -0.4239     4.0028    -3.8985 H       
  34 H34           -2.3750     0.2869    -3.8947 H       
  35 H35           -0.6360     0.2182    -3.5071 H       
  36 H36           -3.1306     0.5658    -5.2944 H       
  37 H37           -2.0867     0.1557     1.7359 H       
  38 H38           -3.1686     1.2454     3.7667 H       
  39 H39           -2.3363     3.5913     4.2600 H       
  40 H40           -3.4763     2.8708    -7.2850 H       
  41 H41           -5.0501     2.2626    -9.1202 H       
  42 H42           -4.2014    -0.6244    -6.0579 H       
  43 H43           -5.7114    -2.2201    -7.1620 H       
  44 H44           -6.8871    -1.5829    -9.2268 H       
@<TRIPOS>BOND
   1    1    3 2
   2    1    4 2
   3    1    8 am
   4    1   16 1
   5    2   16 1
   6    2   20 1
   7    5   15 2
   8    6   10 2
   9    7   10 2
  10    8   11 1
  11    8   12 1
  12    9   13 1
  13    9   14 1
  14    9   15 am
  15   10   25 1
  16   11   13 1
  17   11   28 1
  18   11   29 1
  19   12   14 1
  20   12   30 1
  21   12   31 1
  22   13   32 1
  23   13   33 1
  24   14   34 1
  25   14   35 1
  26   15   17 1
  27   16   18 2
  28   17   21 2
  29   17   36 1
  30   18   19 1
  31   18   37 1
  32   19   20 2
  33   19   38 1
  34   20   39 1
  35   21   22 1
  36   21   40 1
  37   22   23 ar
  38   22   24 ar
  39   23   25 ar
  40   23   41 1
  41   24   26 ar
  42   24   42 1
  43   25   27 ar
  44   26   27 ar
  45   26   43 1
  46   27   44 1

#	End of record

#	Name: 5953249
#	Creating user name:	landrgr1
#	Creation time:	28. 01. 2015 13:52

#	Modifying user name:	landrgr1
#	Modification time:	28. 01. 2015 13:52

#	Program:	corina 3.48 0006  22.01.2010

@<TRIPOS>MOLECULE
5953249
  48   50    0    0    0
SMALL
NO_CHARGES


@<TRIPOS>ATOM
   1 O1             0.0779     1.3431     0.7732 O.3     
   2 O2             1.7596     2.9172     0.7475 O.2     
   3 O3             3.9314     5.1352    -1.4368 O.3     
   4 O4             7.5882     2.9706     0.7256 O.3     
   5 O5             6.4998     5.2018    -0.4568 O.3     
   6 N6             1.2116    -0.4410     0.2238 N.2     
   7 C7            -1.2041    -0.8191     0.6133 C.3     
   8 C8            -1.9571    -0.7429    -0.7164 C.3     
   9 C9            -0.8219    -2.2725     0.9004 C.3     
  10 C10           -3.2240    -1.5968    -0.6347 C.3     
  11 C11           -2.0888    -3.1264     0.9821 C.3     
  12 C12           -2.8418    -3.0502    -0.3476 C.3     
  13 C13            0.0437     0.0220     0.5328 C.2     
  14 C14            2.1194     0.5834     0.2424 C.2     
  15 C15            1.3459     1.7804     0.6134 C.2     
  16 C16            3.4688     0.5101    -0.0276 C.2     
  17 C17            4.2610     1.7369    -0.1393 C.ar    
  18 C18            5.5726     1.7743     0.3545 C.ar    
  19 C19            3.7121     2.8756    -0.7455 C.ar    
  20 C20            4.4629     4.0299    -0.8490 C.ar    
  21 C21            6.3160     2.9330     0.2466 C.ar    
  22 C22            5.7645     4.0639    -0.3524 C.ar    
  23 C23            2.5922     5.0302    -1.9242 C.3     
  24 C24            8.0904     1.7757     1.3274 C.3     
  25 C25            6.4098     6.1337     0.6228 C.3     
  26 H26           -1.8425    -0.4463     1.4143 H       
  27 H27           -2.2295     0.2925    -0.9209 H       
  28 H28           -1.3187    -1.1157    -1.5173 H       
  29 H29           -0.1835    -2.6453     0.0994 H       
  30 H30           -0.2854    -2.3267     1.8477 H       
  31 H31           -3.8624    -1.2240     0.1663 H       
  32 H32           -3.7605    -1.5425    -1.5819 H       
  33 H33           -1.8165    -4.1618     1.1866 H       
  34 H34           -2.7272    -2.7536     1.7831 H       
  35 H35           -3.7444    -3.6586    -0.2893 H       
  36 H36           -2.2034    -3.4230    -1.1485 H       
  37 H37            3.9421    -0.4520    -0.1569 H       
  38 H38            6.0009     0.8983     0.8189 H       
  39 H39            2.7036     2.8500    -1.1313 H       
  40 H40            2.5403     4.2442    -2.6775 H       
  41 H41            1.9232     4.7871    -1.0987 H       
  42 H42            2.2917     5.9793    -2.3680 H       
  43 H43            7.4648     1.5069     2.1785 H       
  44 H44            8.0764     0.9672     0.5964 H       
  45 H45            9.1130     1.9416     1.6661 H       
  46 H46            5.3764     6.4619     0.7343 H       
  47 H47            6.7403     5.6549     1.5446 H       
  48 H48            7.0440     6.9950     0.4131 H       
@<TRIPOS>BOND
   1    1   13 1
   2    1   15 1
   3    2   15 2
   4    3   20 1
   5    3   23 1
   6    4   21 1
   7    4   24 1
   8    5   22 1
   9    5   25 1
  10    6   13 2
  11    6   14 1
  12    7    8 1
  13    7    9 1
  14    7   13 1
  15    7   26 1
  16    8   10 1
  17    8   27 1
  18    8   28 1
  19    9   11 1
  20    9   29 1
  21    9   30 1
  22   10   12 1
  23   10   31 1
  24   10   32 1
  25   11   12 1
  26   11   33 1
  27   11   34 1
  28   12   35 1
  29   12   36 1
  30   14   15 1
  31   14   16 2
  32   16   17 1
  33   16   37 1
  34   17   18 ar
  35   17   19 ar
  36   18   21 ar
  37   18   38 1
  38   19   20 ar
  39   19   39 1
  40   20   22 ar
  41   21   22 ar
  42   23   40 1
  43   23   41 1
  44   23   42 1
  45   24   43 1
  46   24   44 1
  47   24   45 1
  48   25   46 1
  49   25   47 1
  50   25   48 1

#	End of record

#	Name: 5942970
#	Creating user name:	landrgr1
#	Creation time:	28. 01. 2015 13:52

#	Modifying user name:	landrgr1
#	Modification time:	28. 01. 2015 13:52

#	Program:	corina 3.48 0006  22.01.2010

@<TRIPOS>MOLECULE
5942970
  46   50    0    0    0
SMALL
NO_CHARGES


@<TRIPOS>ATOM
   1 F1             4.9173     2.1110     3.8803 F       
   2 F2            -4.6177    10.9181     0.2296 F       
   3 N3             0.0373     1.4287     0.0583 N.pl3   
   4 N4            -1.6292     3.0709     0.1618 N.2     
   5 N5             0.0714     0.0375     0.1807 N.pl3   
   6 N6            -1.9923     0.6823     0.4395 N.2     
   7 C7             0.5492     3.8949    -0.2392 C.2     
   8 C8             1.0487     2.4612    -0.1859 C.3     
   9 C9             1.5298     5.0063    -0.4681 C.3     
  10 C10            0.8425     6.2496    -1.0283 C.3     
  11 C11           -0.7699     4.1039    -0.0655 C.2     
  12 C12           -0.3264     6.6309    -0.1091 C.3     
  13 C13           -1.3099     5.4818    -0.1261 C.2     
  14 C14            2.0854     2.3673     0.9038 C.ar    
  15 C15           -1.2790     1.8103     0.2249 C.2     
  16 C16           -2.6323     5.7046    -0.1963 C.2     
  17 C17            3.4244     2.5259     0.5987 C.ar    
  18 C18            1.6962     2.1284     2.2086 C.ar    
  19 C19           -1.2104    -0.3614     0.4096 C.2     
  20 C20           -3.1552     7.0776    -0.0841 C.ar    
  21 C21            4.3760     2.4401     1.5971 C.ar    
  22 C22            2.6460     2.0426     3.2088 C.ar    
  23 C23            3.9879     2.1956     2.9035 C.ar    
  24 C24           -4.3034     7.4509    -0.7881 C.ar    
  25 C25           -2.5082     8.0104     0.7312 C.ar    
  26 C26           -4.7880     8.7369    -0.6787 C.ar    
  27 C27           -3.0026     9.2934     0.8323 C.ar    
  28 C28           -4.1386     9.6591     0.1271 C.ar    
  29 H29            1.5378     2.2379    -1.1341 H       
  30 H30            2.0089     5.2594     0.4776 H       
  31 H31            2.2903     4.6712    -1.1733 H       
  32 H32            1.5560     7.0725    -1.0716 H       
  33 H33            0.4658     6.0385    -2.0291 H       
  34 H34            0.0364     6.7881     0.9066 H       
  35 H35           -0.8067     7.5377    -0.4768 H       
  36 H36            0.8538    -0.5321     0.1150 H       
  37 H37           -3.3126     4.8773    -0.3350 H       
  38 H38            3.7269     2.7166    -0.4204 H       
  39 H39            0.6495     2.0092     2.4465 H       
  40 H40           -1.5292    -1.3834     0.5518 H       
  41 H41            5.4221     2.5633     1.3584 H       
  42 H42            2.3418     1.8556     4.2281 H       
  43 H43           -4.8099     6.7335    -1.4168 H       
  44 H44           -1.6231     7.7266     1.2811 H       
  45 H45           -5.6752     9.0266    -1.2222 H       
  46 H46           -2.5038    10.0150     1.4623 H       
@<TRIPOS>BOND
   1    1   23 1
   2    2   28 1
   3    3    5 1
   4    3    8 1
   5    3   15 1
   6    4   11 1
   7    4   15 2
   8    5   19 1
   9    5   36 1
  10    6   15 1
  11    6   19 2
  12    7    8 1
  13    7    9 1
  14    7   11 2
  15    8   14 1
  16    8   29 1
  17    9   10 1
  18    9   30 1
  19    9   31 1
  20   10   12 1
  21   10   32 1
  22   10   33 1
  23   11   13 1
  24   12   13 1
  25   12   34 1
  26   12   35 1
  27   13   16 2
  28   14   17 ar
  29   14   18 ar
  30   16   20 1
  31   16   37 1
  32   17   21 ar
  33   17   38 1
  34   18   22 ar
  35   18   39 1
  36   19   40 1
  37   20   24 ar
  38   20   25 ar
  39   21   23 ar
  40   21   41 1
  41   22   23 ar
  42   22   42 1
  43   24   26 ar
  44   24   43 1
  45   25   27 ar
  46   25   44 1
  47   26   28 ar
  48   26   45 1
  49   27   28 ar
  50   27   46 1

#	End of record

#	Name: 5938422
#	Creating user name:	landrgr1
#	Creation time:	28. 01. 2015 13:52

#	Modifying user name:	landrgr1
#	Modification time:	28. 01. 2015 13:52

#	Program:	corina 3.48 0006  22.01.2010

@<TRIPOS>MOLECULE
5938422
  45   46    0    0    0
SMALL
NO_CHARGES


@<TRIPOS>ATOM
   1 O1             0.0280    -2.8121    -0.2898 O.2     
   2 O2            -2.6297     1.0179    -0.0154 O.2     
   3 O3            -4.3874    -3.0110    -0.5425 O.2     
   4 N4            -0.0970     1.3403    -0.0010 N.pl3   
   5 N5            -2.1972    -2.9393    -0.4225 N.am    
   6 N6            -3.5412    -1.0030    -0.2809 N.am    
   7 C7             0.0021    -0.0041     0.0020 C.2     
   8 C8             1.0841     2.1625     0.2734 C.3     
   9 C9            -1.1325    -0.7812    -0.1403 C.2     
  10 C10            0.7013     3.6425     0.2092 C.3     
  11 C11            1.3496    -0.6599     0.1605 C.3     
  12 C12           -1.0484    -2.2451    -0.2886 C.2     
  13 C13            1.9163     4.4882     0.4914 C.ar    
  14 C14           -2.4796    -0.1832    -0.1377 C.2     
  15 C15            1.9632    -0.9046    -1.2196 C.3     
  16 C16           -2.1402    -4.3956    -0.5715 C.3     
  17 C17           -3.3901    -2.3279    -0.4170 C.2     
  18 C18            2.7334     4.8926    -0.5476 C.ar    
  19 C19            2.2105     4.8643     1.7887 C.ar    
  20 C20           -2.1961    -5.0422     0.7886 C.2     
  21 C21            3.8479     5.6684    -0.2888 C.ar    
  22 C22            3.3249     5.6401     2.0476 C.ar    
  23 C23            4.1450     6.0401     1.0091 C.ar    
  24 C24           -3.1123    -5.9416     1.0491 C.2     
  25 H25            1.4666     1.9289     1.2669 H       
  26 H26            1.8530     1.9535    -0.4704 H       
  27 H27            0.3188     3.8761    -0.7844 H       
  28 H28           -0.0676     3.8515     0.9529 H       
  29 H29           -0.9495     1.7634    -0.1887 H       
  30 H30            2.0048    -0.0088     0.7392 H       
  31 H31            1.2319    -1.6111     0.6796 H       
  32 H32            1.3080    -1.5557    -1.7982 H       
  33 H33            2.0808     0.0466    -1.7387 H       
  34 H34            2.9378    -1.3790    -1.1049 H       
  35 H35           -2.9867    -4.7331    -1.1694 H       
  36 H36           -1.2107    -4.6739    -1.0681 H       
  37 H37           -4.4347    -0.6255    -0.2813 H       
  38 H38            2.5013     4.6023    -1.5616 H       
  39 H39            1.5694     4.5523     2.5999 H       
  40 H40           -1.4809    -4.7642     1.5485 H       
  41 H41            4.4867     5.9838    -1.1005 H       
  42 H42            3.5546     5.9342     3.0610 H       
  43 H43            5.0159     6.6459     1.2114 H       
  44 H44           -3.1524    -6.4050     2.0238 H       
  45 H45           -3.8276    -6.2196     0.2891 H       
@<TRIPOS>BOND
   1    1   12 2
   2    2   14 2
   3    3   17 2
   4    4    7 1
   5    4    8 1
   6    4   29 1
   7    5   12 am
   8    5   16 1
   9    5   17 am
  10    6   14 am
  11    6   17 am
  12    6   37 1
  13    7    9 2
  14    7   11 1
  15    8   10 1
  16    8   25 1
  17    8   26 1
  18    9   12 1
  19    9   14 1
  20   10   13 1
  21   10   27 1
  22   10   28 1
  23   11   15 1
  24   11   30 1
  25   11   31 1
  26   13   18 ar
  27   13   19 ar
  28   15   32 1
  29   15   33 1
  30   15   34 1
  31   16   20 1
  32   16   35 1
  33   16   36 1
  34   18   21 ar
  35   18   38 1
  36   19   22 ar
  37   19   39 1
  38   20   24 2
  39   20   40 1
  40   21   23 ar
  41   21   41 1
  42   22   23 ar
  43   22   42 1
  44   23   43 1
  45   24   44 1
  46   24   45 1

#	End of record

#	Name: 5937364
#	Creating user name:	landrgr1
#	Creation time:	28. 01. 2015 13:52

#	Modifying user name:	landrgr1
#	Modification time:	28. 01. 2015 13:52

#	Program:	corina 3.48 0006  22.01.2010

@<TRIPOS>MOLECULE
5937364
  29   31    0    0    0
SMALL
NO_CHARGES


@<TRIPOS>ATOM
   1 S1            -0.0219     1.7603     0.0117 S.3     
   2 O2             2.3273     3.0363    -0.0032 O.2     
   3 N3            -2.3430    -0.2852     0.0224 N.pl3   
   4 C4             1.4153    -0.4220    -0.0137 C.ar    
   5 C5             2.3346     0.6318    -0.0168 C.ar    
   6 C6             0.0021    -0.0041     0.0020 C.2     
   7 C7             1.8953    -1.7496    -0.0250 C.ar    
   8 C8             1.7295     1.9747    -0.0038 C.2     
   9 C9             3.7153     0.3362    -0.0312 C.ar    
  10 C10           -1.0744    -0.8197     0.0079 C.2     
  11 C11            3.2420    -2.0086    -0.0388 C.ar    
  12 C12            4.1545    -0.9629    -0.0419 C.ar    
  13 C13           -3.4561    -1.1286     0.0285 C.ar    
  14 C14           -4.7373    -0.5908     0.0431 C.ar    
  15 C15           -3.2851    -2.5075     0.0142 C.ar    
  16 C16           -5.8356    -1.4278     0.0491 C.ar    
  17 C17           -4.3880    -3.3384     0.0204 C.ar    
  18 C18           -5.6616    -2.7998     0.0411 C.ar    
  19 H19            1.1939    -2.5708    -0.0223 H       
  20 H20            4.4338     1.1426    -0.0341 H       
  21 H21           -0.9400    -1.8913     0.0013 H       
  22 H22            3.5937    -3.0298    -0.0470 H       
  23 H23            5.2138    -1.1728    -0.0532 H       
  24 H24           -2.4638     0.6773     0.0283 H       
  25 H25           -4.8739     0.4805     0.0501 H       
  26 H26           -2.2908    -2.9288    -0.0020 H       
  27 H27           -6.8317    -1.0105     0.0605 H       
  28 H28           -4.2558    -4.4103     0.0089 H       
  29 H29           -6.5224    -3.4520     0.0462 H       
@<TRIPOS>BOND
   1    1    6 1
   2    1    8 1
   3    2    8 2
   4    3   10 1
   5    3   13 1
   6    3   24 1
   7    4    5 ar
   8    4    6 1
   9    4    7 ar
  10    5    8 1
  11    5    9 ar
  12    6   10 2
  13    7   11 ar
  14    7   19 1
  15    9   12 ar
  16    9   20 1
  17   10   21 1
  18   11   12 ar
  19   11   22 1
  20   12   23 1
  21   13   14 ar
  22   13   15 ar
  23   14   16 ar
  24   14   25 1
  25   15   17 ar
  26   15   26 1
  27   16   18 ar
  28   16   27 1
  29   17   18 ar
  30   17   28 1
  31   18   29 1

#	End of record

#	Name: 5936093
#	Creating user name:	landrgr1
#	Creation time:	28. 01. 2015 13:52

#	Modifying user name:	landrgr1
#	Modification time:	28. 01. 2015 13:52

#	Program:	corina 3.48 0006  22.01.2010

@<TRIPOS>MOLECULE
5936093
  42   45    0    0    0
SMALL
NO_CHARGES


@<TRIPOS>ATOM
   1 F1             6.7896    14.8994    -0.1253 F       
   2 O2             0.8573     0.8890    -0.1998 O.3     
   3 O3             6.2147     8.7766    -1.4668 O.2     
   4 N4             4.5429     8.9298    -0.0126 N.am    
   5 N5             3.0011     0.5477    -0.3949 N.2     
   6 C6             3.8345     4.8270    -0.1944 C.ar    
   7 C7             4.3057     7.5560    -0.0735 C.ar    
   8 C8             1.0234    -0.4492    -0.2973 C.ar    
   9 C9             2.4055    -0.6708    -0.4231 C.ar    
  10 C10            2.0732     1.4678    -0.2619 C.2     
  11 C11            5.1430     5.3171    -0.2696 C.ar    
  12 C12            2.7646     5.7184    -0.0581 C.ar    
  13 C13            5.3725     6.6732    -0.2091 C.ar    
  14 C14            3.0031     7.0730     0.0016 C.ar    
  15 C15            3.5840     3.3792    -0.2646 C.2     
  16 C16            2.3225     2.9090    -0.1920 C.2     
  17 C17            5.8862    10.9018    -0.5556 C.ar    
  18 C18            0.1510    -1.5254    -0.2942 C.ar    
  19 C19            2.8877    -1.9768    -0.5438 C.ar    
  20 C20            5.5621     9.4692    -0.7102 C.2     
  21 C21            0.6420    -2.8099    -0.4147 C.ar    
  22 C22            2.0050    -3.0338    -0.5383 C.ar    
  23 C23            6.9418    11.4634    -1.2774 C.ar    
  24 C24            5.1344    11.7011     0.3085 C.ar    
  25 C25            7.2396    12.8010    -1.1296 C.ar    
  26 C26            5.4409    13.0376     0.4486 C.ar    
  27 C27            6.4934    13.5888    -0.2664 C.ar    
  28 H28            5.9717     4.6325    -0.3745 H       
  29 H29            1.7531     5.3443    -0.0000 H       
  30 H30            6.3820     7.0524    -0.2678 H       
  31 H31            2.1778     7.7617     0.1065 H       
  32 H32            4.4106     2.6928    -0.3743 H       
  33 H33            3.9742     9.4965     0.5318 H       
  34 H34            1.4959     3.5954    -0.0823 H       
  35 H35           -0.9118    -1.3597    -0.1974 H       
  36 H36            3.9482    -2.1564    -0.6414 H       
  37 H37           -0.0404    -3.6469    -0.4116 H       
  38 H38            2.3766    -4.0436    -0.6315 H       
  39 H39            7.5239    10.8506    -1.9497 H       
  40 H40            4.3143    11.2729     0.8655 H       
  41 H41            8.0560    13.2363    -1.6869 H       
  42 H42            4.8601    13.6567     1.1162 H       
@<TRIPOS>BOND
   1    1   27 1
   2    2    8 1
   3    2   10 1
   4    3   20 2
   5    4    7 1
   6    4   20 am
   7    4   33 1
   8    5    9 1
   9    5   10 2
  10    6   11 ar
  11    6   12 ar
  12    6   15 1
  13    7   13 ar
  14    7   14 ar
  15    8    9 ar
  16    8   18 ar
  17    9   19 ar
  18   10   16 1
  19   11   13 ar
  20   11   28 1
  21   12   14 ar
  22   12   29 1
  23   13   30 1
  24   14   31 1
  25   15   16 2
  26   15   32 1
  27   16   34 1
  28   17   20 1
  29   17   23 ar
  30   17   24 ar
  31   18   21 ar
  32   18   35 1
  33   19   22 ar
  34   19   36 1
  35   21   22 ar
  36   21   37 1
  37   22   38 1
  38   23   25 ar
  39   23   39 1
  40   24   26 ar
  41   24   40 1
  42   25   27 ar
  43   25   41 1
  44   26   27 ar
  45   26   42 1

#	End of record

#	Name: 5935433
#	Creating user name:	landrgr1
#	Creation time:	28. 01. 2015 13:52

#	Modifying user name:	landrgr1
#	Modification time:	28. 01. 2015 13:52

#	Program:	corina 3.48 0006  22.01.2010

@<TRIPOS>MOLECULE
5935433
  36   37    0    0    0
SMALL
NO_CHARGES


@<TRIPOS>ATOM
   1 Br1           -1.0331    -6.8099    -0.0245 Br      
   2 O2            -0.0144     1.2138     0.0087 O.3     
   3 O3             2.2042     1.1933    -0.0126 O.2     
   4 N4             0.0021    -0.0041     0.0020 N.2     
   5 N5            -2.3234     0.0049     0.0243 N.pl3   
   6 C6             2.5135     5.3499     0.0063 C.ar    
   7 C7             0.1152     5.4429     0.0293 C.ar    
   8 C8             1.2336     3.3173     0.0081 C.ar    
   9 C9             1.3410     6.0845     0.0210 C.ar    
  10 C10            2.4672     3.9712    -0.0002 C.ar    
  11 C11            0.0544     4.0648     0.0229 C.ar    
  12 C12            3.8439     6.0575    -0.0084 C.3     
  13 C13           -1.1565     6.2514     0.0457 C.3     
  14 C14            1.1763     1.8411     0.0007 C.2     
  15 C15           -1.0963    -2.1502     0.0010 C.ar    
  16 C16           -1.1163    -0.6703     0.0091 C.2     
  17 C17           -2.2932    -2.8667     0.0086 C.ar    
  18 C18            0.1196    -2.8338    -0.0201 C.ar    
  19 C19           -2.2684    -4.2459     0.0010 C.ar    
  20 C20            0.1322    -4.2132    -0.0275 C.ar    
  21 C21           -1.0587    -4.9191    -0.0142 C.ar    
  22 H22            1.3829     7.1637     0.0260 H       
  23 H23            3.3831     3.3990    -0.0120 H       
  24 H24           -0.9031     3.5652     0.0297 H       
  25 H25            4.1767     6.2269     1.0157 H       
  26 H26            4.5765     5.4430    -0.5316 H       
  27 H27            3.7408     7.0146    -0.5198 H       
  28 H28           -1.4729     6.4518    -0.9779 H       
  29 H29           -1.9357     5.6925     0.5640 H       
  30 H30           -0.9807     7.1946     0.5630 H       
  31 H31           -3.2374    -2.3426     0.0207 H       
  32 H32            1.0492    -2.2842    -0.0309 H       
  33 H33           -3.1944    -4.8017     0.0072 H       
  34 H34            1.0729    -4.7435    -0.0442 H       
  35 H35           -2.3365     0.9748     0.0296 H       
  36 H36           -3.1567    -0.4915     0.0296 H       
@<TRIPOS>BOND
   1    1   21 1
   2    2    4 1
   3    2   14 1
   4    3   14 2
   5    4   16 2
   6    5   16 1
   7    5   35 1
   8    5   36 1
   9    6    9 ar
  10    6   10 ar
  11    6   12 1
  12    7    9 ar
  13    7   11 ar
  14    7   13 1
  15    8   10 ar
  16    8   11 ar
  17    8   14 1
  18    9   22 1
  19   10   23 1
  20   11   24 1
  21   12   25 1
  22   12   26 1
  23   12   27 1
  24   13   28 1
  25   13   29 1
  26   13   30 1
  27   15   16 1
  28   15   17 ar
  29   15   18 ar
  30   17   19 ar
  31   17   31 1
  32   18   20 ar
  33   18   32 1
  34   19   21 ar
  35   19   33 1
  36   20   21 ar
  37   20   34 1

#	End of record

#	Name: 5934545
#	Creating user name:	landrgr1
#	Creation time:	28. 01. 2015 13:52

#	Modifying user name:	landrgr1
#	Modification time:	28. 01. 2015 13:52

#	Program:	corina 3.48 0006  22.01.2010

@<TRIPOS>MOLECULE
5934545
  47   48    0    0    0
SMALL
NO_CHARGES


@<TRIPOS>ATOM
   1 Cl1           -0.0703    -2.4072     0.1669 Cl      
   2 O2             0.4994     1.3761     0.0045 O.3     
   3 O3             4.5869     1.4911    -1.7149 O.3     
   4 O4             4.5321     5.1780    -2.1397 O.3     
   5 O5             4.8401     1.3491     0.4884 O.2     
   6 O6             3.9151     4.1215     0.3507 O.2     
   7 O7             2.4272     4.7328    -2.6745 O.2     
   8 N8             0.8577     5.6664     0.2218 N.pl3   
   9 N9             0.6643     0.1819     0.0095 N.2     
  10 C10            2.6562     1.1135    -0.2754 C.2     
  11 C11            1.6367     2.0691    -0.1618 C.2     
  12 C12            1.9178    -0.1592    -0.1489 C.2     
  13 C13            1.7832     3.5301    -0.2146 C.2     
  14 C14            2.4778    -1.5318    -0.1915 C.ar    
  15 C15            0.6846     4.3466     0.0156 C.2     
  16 C16            1.6362    -2.6360    -0.0548 C.ar    
  17 C17            3.8458    -1.7238    -0.3739 C.ar    
  18 C18            4.0930     1.3244    -0.4710 C.2     
  19 C19            3.0472     4.1061    -0.5007 C.2     
  20 C20            2.1641    -3.9119    -0.0958 C.ar    
  21 C21            4.3615    -3.0035    -0.4132 C.ar    
  22 C22            2.2085     6.2135     0.3710 C.3     
  23 C23           -0.3048     6.5547     0.2970 C.3     
  24 C24            3.5236    -4.0949    -0.2719 C.ar    
  25 C25            3.3118     4.6928    -1.8455 C.2     
  26 C26            4.6877     5.8360    -3.4247 C.3     
  27 C27            6.0000     1.8062    -1.8263 C.3     
  28 C28            6.0955     6.4260    -3.5284 C.3     
  29 H29           -0.3091     3.9236     0.0294 H       
  30 H30            4.5014    -0.8728    -0.4847 H       
  31 H31            1.5141    -4.7678     0.0102 H       
  32 H32            5.4218    -3.1529    -0.5546 H       
  33 H33            2.6364     6.3985    -0.6143 H       
  34 H34            2.1621     7.1489     0.9285 H       
  35 H35            2.8321     5.5000     0.9097 H       
  36 H36           -1.2164     5.9721     0.1644 H       
  37 H37           -0.3252     7.0449     1.2703 H       
  38 H38           -0.2377     7.3081    -0.4879 H       
  39 H39            3.9322    -5.0942    -0.3031 H       
  40 H40            4.5377     5.1110    -4.2247 H       
  41 H41            3.9515     6.6346    -3.5154 H       
  42 H42            6.5897     0.9642    -1.4639 H       
  43 H43            6.2476     2.0010    -2.8698 H       
  44 H44            6.2233     2.6901    -1.2288 H       
  45 H45            6.8318     5.6274    -3.4377 H       
  46 H46            6.2123     6.9200    -4.4930 H       
  47 H47            6.2455     7.1510    -2.7285 H       
@<TRIPOS>BOND
   1    1   16 1
   2    2    9 1
   3    2   11 1
   4    3   18 1
   5    3   27 1
   6    4   25 1
   7    4   26 1
   8    5   18 2
   9    6   19 2
  10    7   25 2
  11    8   15 1
  12    8   22 1
  13    8   23 1
  14    9   12 2
  15   10   11 2
  16   10   12 1
  17   10   18 1
  18   11   13 1
  19   12   14 1
  20   13   15 2
  21   13   19 1
  22   14   16 ar
  23   14   17 ar
  24   15   29 1
  25   16   20 ar
  26   17   21 ar
  27   17   30 1
  28   19   25 1
  29   20   24 ar
  30   20   31 1
  31   21   24 ar
  32   21   32 1
  33   22   33 1
  34   22   34 1
  35   22   35 1
  36   23   36 1
  37   23   37 1
  38   23   38 1
  39   24   39 1
  40   26   28 1
  41   26   40 1
  42   26   41 1
  43   27   42 1
  44   27   43 1
  45   27   44 1
  46   28   45 1
  47   28   46 1
  48   28   47 1

#	End of record

#	Name: 5933903
#	Creating user name:	landrgr1
#	Creation time:	28. 01. 2015 13:52

#	Modifying user name:	landrgr1
#	Modification time:	28. 01. 2015 13:52

#	Program:	corina 3.48 0006  22.01.2010

@<TRIPOS>MOLECULE
5933903
  59   62    0    0    0
SMALL
NO_CHARGES


@<TRIPOS>ATOM
   1 O1            -3.8914    -1.9239     0.7955 O.2     
   2 O2             0.0530     1.3006     0.0543 O.3     
   3 N3            -5.8072    -3.7183     0.7812 N.3     
   4 N4            -8.6080    -3.2704     0.5349 N.3     
   5 N5            -0.2817    -4.1330    -0.7132 N.pl3   
   6 C6            -6.7530    -4.8424     0.8205 C.3     
   7 C7            -6.3216    -2.6303    -0.0621 C.3     
   8 C8            -8.0936    -4.3585     1.3782 C.3     
   9 C9            -7.6622    -2.1463     0.4956 C.3     
  10 C10           -4.4836    -4.1598     0.3217 C.3     
  11 C11           -9.9316    -2.8290     0.9944 C.3     
  12 C12           -3.5177    -3.0050     0.3888 C.2     
  13 C13           -2.1733    -3.1810    -0.0229 C.2     
  14 C14           -1.1411    -2.1334    -0.1513 C.ar    
  15 C15           -1.5662    -4.3653    -0.3837 C.2     
  16 C16          -10.3181    -1.5642     0.2719 C.2     
  17 C17            0.0198    -2.7905    -0.5864 C.ar    
  18 C18           -1.1286    -0.7584     0.0643 C.ar    
  19 C19           -2.2380    -5.7141    -0.4059 C.3     
  20 C20            1.1813    -2.0550    -0.8011 C.ar    
  21 C21          -11.4632    -1.5043    -0.3932 C.2     
  22 C22            0.0341    -0.0429    -0.1539 C.ar    
  23 C23            1.1853    -0.6947    -0.5859 C.ar    
  24 C24          -11.8423    -0.2637    -1.1019 C.ar    
  25 C25          -13.0470    -0.1974    -1.8028 C.ar    
  26 C26          -10.9997     0.8480    -1.0678 C.ar    
  27 C27            1.2873     1.9778    -0.1905 C.3     
  28 C28          -13.3952     0.9637    -2.4618 C.ar    
  29 C29          -11.3596     2.0031    -1.7310 C.ar    
  30 C30          -12.5529     2.0606    -2.4286 C.ar    
  31 H31           -6.8976    -5.2314    -0.1874 H       
  32 H32           -6.3556    -5.6298     1.4610 H       
  33 H33           -5.6097    -1.8049    -0.0651 H       
  34 H34           -6.4613    -2.9941    -1.0801 H       
  35 H35           -7.9539    -3.9946     2.3962 H       
  36 H36           -8.8055    -5.1839     1.3812 H       
  37 H37           -8.0596    -1.3590    -0.1449 H       
  38 H38           -7.5176    -1.7573     1.5035 H       
  39 H39           -4.1282    -4.9683     0.9606 H       
  40 H40           -4.5555    -4.5141    -0.7066 H       
  41 H41          -10.6667    -3.6061     0.7850 H       
  42 H42           -9.8991    -2.6391     2.0672 H       
  43 H43           -9.6621    -0.7066     0.2960 H       
  44 H44            0.3470    -4.8151    -0.9967 H       
  45 H45           -2.0224    -0.2530     0.3992 H       
  46 H46           -2.2257    -6.1426     0.5963 H       
  47 H47           -3.2694    -5.6008    -0.7400 H       
  48 H48           -1.7050    -6.3744    -1.0899 H       
  49 H49            2.0803    -2.5511    -1.1361 H       
  50 H50          -12.1192    -2.3619    -0.4173 H       
  51 H51            2.0898    -0.1289    -0.7534 H       
  52 H52          -13.7052    -1.0533    -1.8298 H       
  53 H53          -10.0680     0.8044    -0.5233 H       
  54 H54            1.5777     1.8387    -1.2319 H       
  55 H55            1.1649     3.0415     0.0136 H       
  56 H56            2.0609     1.5697     0.4600 H       
  57 H57          -14.3271     1.0162    -3.0051 H       
  58 H58          -10.7085     2.8644    -1.7051 H       
  59 H59          -12.8299     2.9671    -2.9463 H       
@<TRIPOS>BOND
   1    1   12 2
   2    2   22 1
   3    2   27 1
   4    3    6 1
   5    3    7 1
   6    3   10 1
   7    4    8 1
   8    4    9 1
   9    4   11 1
  10    5   15 1
  11    5   17 1
  12    5   44 1
  13    6    8 1
  14    6   31 1
  15    6   32 1
  16    7    9 1
  17    7   33 1
  18    7   34 1
  19    8   35 1
  20    8   36 1
  21    9   37 1
  22    9   38 1
  23   10   12 1
  24   10   39 1
  25   10   40 1
  26   11   16 1
  27   11   41 1
  28   11   42 1
  29   12   13 1
  30   13   14 1
  31   13   15 2
  32   14   17 ar
  33   14   18 ar
  34   15   19 1
  35   16   21 2
  36   16   43 1
  37   17   20 ar
  38   18   22 ar
  39   18   45 1
  40   19   46 1
  41   19   47 1
  42   19   48 1
  43   20   23 ar
  44   20   49 1
  45   21   24 1
  46   21   50 1
  47   22   23 ar
  48   23   51 1
  49   24   25 ar
  50   24   26 ar
  51   25   28 ar
  52   25   52 1
  53   26   29 ar
  54   26   53 1
  55   27   54 1
  56   27   55 1
  57   27   56 1
  58   28   30 ar
  59   28   57 1
  60   29   30 ar
  61   29   58 1
  62   30   59 1

#	End of record

#	Name: 5928900
#	Creating user name:	landrgr1
#	Creation time:	28. 01. 2015 13:52

#	Modifying user name:	landrgr1
#	Modification time:	28. 01. 2015 13:52

#	Program:	corina 3.48 0006  22.01.2010

@<TRIPOS>MOLECULE
5928900
  52   55    0    0    0
SMALL
NO_CHARGES


@<TRIPOS>ATOM
   1 O1             2.3799    -1.8752     2.5498 O.2     
   2 O2            -0.0164     1.3557     0.0095 O.3     
   3 O3            -2.3810    -0.0568     0.0249 O.3     
   4 N4             2.8691    -5.5799    -0.1578 N.2     
   5 N5             2.9042    -5.3658    -2.6162 N.pl3   
   6 N6             2.7905    -4.2366    -3.4388 N.pl3   
   7 C7             3.4574    -5.1536     3.4301 C.3     
   8 C8             2.8461    -5.9251     2.2590 C.3     
   9 C9             2.6015    -3.9156     3.7111 C.3     
  10 C10            2.6173    -3.6671     1.2065 C.2     
  11 C11            2.5425    -2.8000    -0.0368 C.3     
  12 C12            2.7765    -5.0287     1.0440 C.2     
  13 C13            2.5249    -3.0799     2.4599 C.2     
  14 C14            2.6588    -3.5328    -1.3560 C.2     
  15 C15            3.4894    -6.0473     4.6715 C.3     
  16 C16            4.8802    -4.7202     3.0711 C.3     
  17 C17            2.8222    -4.9355    -1.3110 C.2     
  18 C18            1.2274    -2.0643    -0.0203 C.ar    
  19 C19            2.6427    -3.1383    -2.6411 C.2     
  20 C20            1.2105    -0.6820    -0.0132 C.ar    
  21 C21            0.0405    -2.7733    -0.0181 C.ar    
  22 C22            2.4871    -1.7186    -3.1218 C.3     
  23 C23            0.0021    -0.0041     0.0020 C.ar    
  24 C24           -1.1685    -2.1031    -0.0029 C.ar    
  25 C25           -1.1925    -0.7177     0.0101 C.ar    
  26 C26            1.2479     2.0217     0.0010 C.3     
  27 C27            1.0269     3.5357     0.0112 C.3     
  28 H28            3.4643    -6.7944     2.0347 H       
  29 H29            1.8414    -6.2534     2.5254 H       
  30 H30            1.5983    -4.2245     4.0046 H       
  31 H31            3.0549    -3.3328     4.5128 H       
  32 H32            3.3419    -2.0607     0.0144 H       
  33 H33            4.0918    -6.9323     4.4666 H       
  34 H34            3.9252    -5.4962     5.5048 H       
  35 H35            2.4741    -6.3501     4.9274 H       
  36 H36            4.8534    -4.0797     2.1896 H       
  37 H37            5.3143    -4.1707     3.9064 H       
  38 H38            5.4865    -5.6015     2.8617 H       
  39 H39            3.0193    -6.2823    -2.9122 H       
  40 H40            2.8133    -4.2356    -4.4085 H       
  41 H41            2.1390    -0.1305    -0.0191 H       
  42 H42            0.0579    -3.8531    -0.0285 H       
  43 H43            2.5100    -1.6993    -4.2114 H       
  44 H44            1.5357    -1.3185    -2.7713 H       
  45 H45            3.3031    -1.1110    -2.7305 H       
  46 H46           -2.0943    -2.6593    -0.0016 H       
  47 H47            1.8173     1.7317     0.8840 H       
  48 H48            1.8003     1.7413    -0.8958 H       
  49 H49           -2.7333     0.1387    -0.8541 H       
  50 H50            0.4745     3.8162     0.9081 H       
  51 H51            1.9913     4.0437     0.0048 H       
  52 H52            0.4575     3.8257    -0.8718 H       
@<TRIPOS>BOND
   1    1   13 2
   2    2   23 1
   3    2   26 1
   4    3   25 1
   5    3   49 1
   6    4   12 1
   7    4   17 2
   8    5    6 1
   9    5   17 1
  10    5   39 1
  11    6   19 1
  12    6   40 1
  13    7    8 1
  14    7    9 1
  15    7   15 1
  16    7   16 1
  17    8   12 1
  18    8   28 1
  19    8   29 1
  20    9   13 1
  21    9   30 1
  22    9   31 1
  23   10   11 1
  24   10   12 2
  25   10   13 1
  26   11   14 1
  27   11   18 1
  28   11   32 1
  29   14   17 1
  30   14   19 2
  31   15   33 1
  32   15   34 1
  33   15   35 1
  34   16   36 1
  35   16   37 1
  36   16   38 1
  37   18   20 ar
  38   18   21 ar
  39   19   22 1
  40   20   23 ar
  41   20   41 1
  42   21   24 ar
  43   21   42 1
  44   22   43 1
  45   22   44 1
  46   22   45 1
  47   23   25 ar
  48   24   25 ar
  49   24   46 1
  50   26   27 1
  51   26   47 1
  52   26   48 1
  53   27   50 1
  54   27   51 1
  55   27   52 1

#	End of record

#	Name: 5928009
#	Creating user name:	landrgr1
#	Creation time:	28. 01. 2015 13:52

#	Modifying user name:	landrgr1
#	Modification time:	28. 01. 2015 13:52

#	Program:	corina 3.48 0006  22.01.2010

@<TRIPOS>MOLECULE
5928009
  61   64    0    0    0
SMALL
NO_CHARGES


@<TRIPOS>ATOM
   1 S1            -1.5530     4.0021     4.0366 S.o2    
   2 O2            -0.5518     2.9937     4.0277 O.2     
   3 O3            -1.5191     5.0244     5.0229 O.2     
   4 O4           -12.5877     7.8549     0.3887 O.2     
   5 O5            -4.7933     3.8921    -0.1747 O.2     
   6 O6            -4.2418     7.0315    -3.7032 O.2     
   7 N7            -8.6050     6.6156    -1.9755 N.pl3   
   8 N8            -3.5707     5.3666     0.9522 N.am    
   9 N9            -8.0569     8.0987    -3.7020 N.2     
  10 N10           -5.8708     8.2967    -4.5561 N.am    
  11 N11          -11.6601     6.9198     2.1740 N.am    
  12 N12           -4.2721     8.5410    -0.5557 N.1     
  13 C13           -3.0268     4.3181     1.8188 C.3     
  14 C14           -1.6608     4.7640     2.3772 C.3     
  15 C15           -3.9874     4.0698     3.0025 C.3     
  16 C16           -3.2081     3.2146     4.0346 C.3     
  17 C17          -10.6913     6.5263    -0.0677 C.3     
  18 C18          -10.9784     6.9424    -1.5122 C.3     
  19 C19           -9.2930     7.0017     0.3336 C.3     
  20 C20           -9.9571     6.2805    -2.4426 C.3     
  21 C21           -8.2527     6.3405    -0.5759 C.3     
  22 C22           -7.6845     7.1712    -2.8338 C.2     
  23 C23          -11.7148     7.1484     0.8469 C.2     
  24 C24           -6.3288     6.7551    -2.7951 C.2     
  25 C25           -4.4506     5.0495    -0.0183 C.2     
  26 C26           -4.9951     6.0991    -0.8858 C.2     
  27 C27           -5.9015     5.7725    -1.8856 C.2     
  28 C28           -5.4156     7.3570    -3.6994 C.2     
  29 C29           -7.1889     8.6576    -4.5471 C.2     
  30 C30           -7.6454     9.6376    -5.4460 C.2     
  31 C31           -5.0005     8.8798    -5.4280 C.2     
  32 C32           -6.7670    10.2158    -6.3144 C.2     
  33 C33           -5.4218     9.8244    -6.2992 C.2     
  34 C34           -4.5919     7.4608    -0.7017 C.1     
  35 C35           -9.0960    10.0461    -5.4501 C.3     
  36 H36           -2.9065     3.3970     1.2484 H       
  37 H37           -1.6206     5.8504     2.4562 H       
  38 H38           -0.8545     4.4000     1.7404 H       
  39 H39           -4.2797     5.0190     3.4515 H       
  40 H40           -4.8707     3.5308     2.6597 H       
  41 H41           -3.1426     2.1771     3.7067 H       
  42 H42           -3.6697     3.2817     5.0198 H       
  43 H43          -10.7432     5.4407     0.0146 H       
  44 H44          -11.9833     6.6240    -1.7896 H       
  45 H45          -10.9023     8.0261    -1.6006 H       
  46 H46           -9.2328     8.0849     0.2278 H       
  47 H47           -9.0983     6.7255     1.3699 H       
  48 H48          -10.0949     6.6505    -3.4586 H       
  49 H49          -10.0927     5.1991    -2.4238 H       
  50 H50           -8.2492     5.2640    -0.4048 H       
  51 H51           -7.2658     6.7500    -0.3603 H       
  52 H52           -3.2976     6.2889     1.0769 H       
  53 H53           -6.2783     4.7634    -1.9644 H       
  54 H54          -12.3189     7.3202     2.7626 H       
  55 H55          -10.9620     6.3548     2.5404 H       
  56 H56           -3.9618     8.5841    -5.4227 H       
  57 H57           -7.1062    10.9694    -7.0096 H       
  58 H58           -4.7203    10.2780    -6.9837 H       
  59 H59           -9.2420    10.8753    -4.7579 H       
  60 H60           -9.3832    10.3566    -6.4548 H       
  61 H61           -9.7121     9.2018    -5.1408 H       
@<TRIPOS>BOND
   1    1    2 2
   2    1    3 2
   3    1   14 1
   4    1   16 1
   5    4   23 2
   6    5   25 2
   7    6   28 2
   8    7   20 1
   9    7   21 1
  10    7   22 1
  11    8   13 1
  12    8   25 am
  13    8   52 1
  14    9   22 1
  15    9   29 2
  16   10   28 am
  17   10   29 1
  18   10   31 1
  19   11   23 am
  20   11   54 1
  21   11   55 1
  22   12   34 3
  23   13   14 1
  24   13   15 1
  25   13   36 1
  26   14   37 1
  27   14   38 1
  28   15   16 1
  29   15   39 1
  30   15   40 1
  31   16   41 1
  32   16   42 1
  33   17   18 1
  34   17   19 1
  35   17   23 1
  36   17   43 1
  37   18   20 1
  38   18   44 1
  39   18   45 1
  40   19   21 1
  41   19   46 1
  42   19   47 1
  43   20   48 1
  44   20   49 1
  45   21   50 1
  46   21   51 1
  47   22   24 2
  48   24   27 1
  49   24   28 1
  50   25   26 1
  51   26   27 2
  52   26   34 1
  53   27   53 1
  54   29   30 1
  55   30   32 2
  56   30   35 1
  57   31   33 2
  58   31   56 1
  59   32   33 1
  60   32   57 1
  61   33   58 1
  62   35   59 1
  63   35   60 1
  64   35   61 1

#	End of record

#	Name: 5911881
#	Creating user name:	landrgr1
#	Creation time:	28. 01. 2015 13:52

#	Modifying user name:	landrgr1
#	Modification time:	28. 01. 2015 13:52

#	Program:	corina 3.48 0006  22.01.2010

@<TRIPOS>MOLECULE
5911881
  41   42    0    0    0
SMALL
NO_CHARGES


@<TRIPOS>ATOM
   1 O1             0.5151    -8.8368    -2.2860 O.2     
   2 O2             2.3068    -6.7647    -0.0129 O.2     
   3 O3             4.7927     1.3897    -0.3492 O.3     
   4 O4             7.0666    -0.0604    -0.5760 O.2     
   5 N5             0.6001   -10.4806     0.6938 N.pl3   
   6 N6             0.7126   -10.4789    -0.7029 N.am    
   7 N7             1.2338    -4.8229    -0.0129 N.am    
   8 N8             2.4388    -4.1084    -0.0252 N.pl3   
   9 C9             0.2459    -8.4175     0.0099 C.2     
  10 C10           -0.0467    -6.9392     0.0059 C.3     
  11 C11            0.3147    -9.2080     1.0999 C.2     
  12 C12            0.4968    -9.2178    -1.1294 C.2     
  13 C13            1.2495    -6.1706    -0.0073 C.2     
  14 C14            0.1104    -8.7630     2.5252 C.3     
  15 C15            2.4249    -2.7714    -0.1373 C.2     
  16 C16            3.6278    -2.0664    -0.2513 C.2     
  17 C17            3.6231    -0.6528    -0.2445 C.2     
  18 C18            4.8487    -2.7658    -0.3675 C.2     
  19 C19            1.1133    -2.0291    -0.1403 C.3     
  20 C20            4.7943     0.0293    -0.3550 C.2     
  21 C21            6.0162    -2.0811    -0.4777 C.2     
  22 C22            6.0122    -0.6750    -0.4764 C.2     
  23 C23            3.5245     2.0364    -0.2236 C.3     
  24 H24           -0.6281    -6.6863    -0.8807 H       
  25 H25           -0.6144    -6.6788     0.8992 H       
  26 H26            0.7029   -11.2527     1.2719 H       
  27 H27            0.9106   -11.2463    -1.2621 H       
  28 H28            0.2258    -9.6171     3.1925 H       
  29 H29            0.8490    -8.0022     2.7777 H       
  30 H30           -0.8913    -8.3480     2.6362 H       
  31 H31            0.3882    -4.3477    -0.0084 H       
  32 H32            3.2832    -4.5802     0.0474 H       
  33 H33            2.6909    -0.1154    -0.1519 H       
  34 H34            4.8541    -3.8458    -0.3687 H       
  35 H35            0.8436    -1.7639     0.8819 H       
  36 H36            1.2104    -1.1224    -0.7374 H       
  37 H37            0.3374    -2.6643    -0.5677 H       
  38 H38            6.9494    -2.6174    -0.5658 H       
  39 H39            2.8847     1.7463    -1.0570 H       
  40 H40            3.0563     1.7389     0.7147 H       
  41 H41            3.6654     3.1172    -0.2327 H       
@<TRIPOS>BOND
   1    1   12 2
   2    2   13 2
   3    3   20 1
   4    3   23 1
   5    4   22 2
   6    5    6 1
   7    5   11 1
   8    5   26 1
   9    6   12 am
  10    6   27 1
  11    7    8 1
  12    7   13 am
  13    7   31 1
  14    8   15 1
  15    8   32 1
  16    9   10 1
  17    9   11 2
  18    9   12 1
  19   10   13 1
  20   10   24 1
  21   10   25 1
  22   11   14 1
  23   14   28 1
  24   14   29 1
  25   14   30 1
  26   15   16 2
  27   15   19 1
  28   16   17 1
  29   16   18 1
  30   17   20 2
  31   17   33 1
  32   18   21 2
  33   18   34 1
  34   19   35 1
  35   19   36 1
  36   19   37 1
  37   20   22 1
  38   21   22 1
  39   21   38 1
  40   23   39 1
  41   23   40 1
  42   23   41 1

#	End of record

#	Name: 5907838
#	Creating user name:	landrgr1
#	Creation time:	28. 01. 2015 13:52

#	Modifying user name:	landrgr1
#	Modification time:	28. 01. 2015 13:52

#	Program:	corina 3.48 0006  22.01.2010

@<TRIPOS>MOLECULE
5907838
  46   49    0    0    0
SMALL
NO_CHARGES


@<TRIPOS>ATOM
   1 O1             2.2792    -4.3367     0.0174 O.2     
   2 O2            -0.0275    -2.7691     0.8479 O.2     
   3 N3             0.0003     1.3682     0.1944 N.pl3   
   4 N4             3.4753    -0.7392    -0.1582 N.pl3   
   5 N5             3.4778    -2.1235     0.0578 N.pl3   
   6 N6             1.1746    -0.6497     0.2801 N.2     
   7 C7             5.8621    -4.9717     0.1090 C.ar    
   8 C8             4.6082    -4.2034     0.0383 C.2     
   9 C9             5.7976    -6.3788     0.2075 C.ar    
  10 C10            0.0409     0.0230     0.3973 C.2     
  11 C11            1.1327     2.0445    -0.1340 C.2     
  12 C12            3.3398    -4.9399     0.0735 C.2     
  13 C13            7.1023    -4.3353     0.0747 C.ar    
  14 C14            4.5020    -7.0467     0.2380 C.2     
  15 C15            2.3053    -0.0271    -0.0396 C.2     
  16 C16            4.6255    -2.8220    -0.0585 C.2     
  17 C17           -1.1921    -0.6929     0.7521 C.2     
  18 C18            6.9873    -7.1163     0.2753 C.ar    
  19 C19            2.2998     1.3628    -0.2563 C.2     
  20 C20            3.3494    -6.3480     0.1731 C.2     
  21 C21            8.2543    -5.0874     0.1426 C.ar    
  22 C22            8.1898    -6.4710     0.2455 C.ar    
  23 C23            1.0926     3.5339    -0.3601 C.3     
  24 C24           -1.1687    -2.0896     0.9664 C.2     
  25 C25           -2.3978     0.0030     0.8863 C.2     
  26 C26           -2.3543    -2.7538     1.3038 C.2     
  27 C27           -3.5491    -0.6731     1.2192 C.2     
  28 C28           -3.5280    -2.0466     1.4238 C.2     
  29 H29            7.1592    -3.2597    -0.0051 H       
  30 H30            4.4640    -8.1235     0.3132 H       
  31 H31            5.5581    -2.3042    -0.2272 H       
  32 H32           -0.8399     1.8452     0.2805 H       
  33 H33            6.9528    -8.1931     0.3512 H       
  34 H34            3.2114     1.8800    -0.5168 H       
  35 H35            2.4098    -6.8799     0.1982 H       
  36 H36            4.2991    -0.2833    -0.3914 H       
  37 H37            2.6540    -2.5794     0.2910 H       
  38 H38            9.2161    -4.5969     0.1162 H       
  39 H39            9.1035    -7.0444     0.2984 H       
  40 H40            1.2785     4.0495     0.5821 H       
  41 H41            1.8586     3.8122    -1.0839 H       
  42 H42            0.1118     3.8171    -0.7420 H       
  43 H43           -2.4252     1.0711     0.7289 H       
  44 H44           -2.3473    -3.8210     1.4693 H       
  45 H45           -4.4774    -0.1309     1.3222 H       
  46 H46           -4.4401    -2.5632     1.6839 H       
@<TRIPOS>BOND
   1    1   12 2
   2    2   24 2
   3    3   10 1
   4    3   11 1
   5    3   32 1
   6    4    5 1
   7    4   15 1
   8    4   36 1
   9    5   16 1
  10    5   37 1
  11    6   10 1
  12    6   15 2
  13    7    8 1
  14    7    9 ar
  15    7   13 ar
  16    8   12 1
  17    8   16 2
  18    9   14 1
  19    9   18 ar
  20   10   17 2
  21   11   19 2
  22   11   23 1
  23   12   20 1
  24   13   21 ar
  25   13   29 1
  26   14   20 2
  27   14   30 1
  28   15   19 1
  29   16   31 1
  30   17   24 1
  31   17   25 1
  32   18   22 ar
  33   18   33 1
  34   19   34 1
  35   20   35 1
  36   21   22 ar
  37   21   38 1
  38   22   39 1
  39   23   40 1
  40   23   41 1
  41   23   42 1
  42   24   26 1
  43   25   27 2
  44   25   43 1
  45   26   28 2
  46   26   44 1
  47   27   28 1
  48   27   45 1
  49   28   46 1

#	End of record

#	Name: 5906790
#	Creating user name:	landrgr1
#	Creation time:	28. 01. 2015 13:52

#	Modifying user name:	landrgr1
#	Modification time:	28. 01. 2015 13:52

#	Program:	corina 3.48 0006  22.01.2010

@<TRIPOS>MOLECULE
5906790
  38   39    0    0    0
SMALL
NO_CHARGES


@<TRIPOS>ATOM
   1 Cl1          -10.8738    -6.4617    -0.8256 Cl      
   2 O2            -0.0162     1.3434     0.0094 O.3     
   3 O3            -4.0170    -2.4264     2.7594 O.2     
   4 O4             1.0627    -0.5973    -0.0113 O.2     
   5 N5            -3.0738    -1.8265    -0.6741 N.pl3   
   6 C6            -1.9739    -1.1936     1.1510 C.2     
   7 C7            -1.2630    -0.7576     0.0100 C.2     
   8 C8            -3.0842    -1.8487     0.7031 C.2     
   9 C9            -1.9807    -1.1716    -1.0978 C.2     
  10 C10           -1.5806    -0.9764     2.5894 C.3     
  11 C11           -1.6003    -0.9292    -2.5357 C.3     
  12 C12           -4.1143    -2.4706     1.5454 C.2     
  13 C13            0.0021    -0.0041     0.0020 C.2     
  14 C14           -5.2577    -3.1435     0.9267 C.2     
  15 C15           -6.2043    -3.7149     1.7008 C.2     
  16 C16           -7.3533    -4.3911     1.0791 C.ar    
  17 C17           -8.3364    -4.9845     1.8782 C.ar    
  18 C18           -7.4712    -4.4388    -0.3142 C.ar    
  19 C19            1.2684     2.0202     0.0008 C.3     
  20 C20           -9.4104    -5.6159     1.2887 C.ar    
  21 C21           -8.5508    -5.0737    -0.8897 C.ar    
  22 C22           -9.5178    -5.6638    -0.0919 C.ar    
  23 H23           -3.7474    -2.2248    -1.2473 H       
  24 H24           -2.0110    -0.0408     2.9465 H       
  25 H25           -1.9519    -1.8021     3.1963 H       
  26 H26           -0.4943    -0.9291     2.6659 H       
  27 H27           -2.0336     0.0126    -2.8724 H       
  28 H28           -0.5147    -0.8808    -2.6212 H       
  29 H29           -1.9774    -1.7441    -3.1537 H       
  30 H30           -5.3439    -3.1827    -0.1491 H       
  31 H31           -6.1181    -3.6758     2.7766 H       
  32 H32           -8.2537    -4.9483     2.9545 H       
  33 H33           -6.7184    -3.9790    -0.9372 H       
  34 H34          -10.1699    -6.0748     1.9044 H       
  35 H35           -8.6433    -5.1110    -1.9650 H       
  36 H36            1.8378     1.7301     0.8838 H       
  37 H37            1.8208     1.7397    -0.8960 H       
  38 H38            1.1110     3.0987     0.0081 H       
@<TRIPOS>BOND
   1    1   22 1
   2    2   13 1
   3    2   19 1
   4    3   12 2
   5    4   13 2
   6    5    8 1
   7    5    9 1
   8    5   23 1
   9    6    7 1
  10    6    8 2
  11    6   10 1
  12    7    9 2
  13    7   13 1
  14    8   12 1
  15    9   11 1
  16   10   24 1
  17   10   25 1
  18   10   26 1
  19   11   27 1
  20   11   28 1
  21   11   29 1
  22   12   14 1
  23   14   15 2
  24   14   30 1
  25   15   16 1
  26   15   31 1
  27   16   17 ar
  28   16   18 ar
  29   17   20 ar
  30   17   32 1
  31   18   21 ar
  32   18   33 1
  33   19   36 1
  34   19   37 1
  35   19   38 1
  36   20   22 ar
  37   20   34 1
  38   21   22 ar
  39   21   35 1

#	End of record

#	Name: 5899266
#	Creating user name:	landrgr1
#	Creation time:	28. 01. 2015 13:52

#	Modifying user name:	landrgr1
#	Modification time:	28. 01. 2015 13:52

#	Program:	corina 3.48 0006  22.01.2010

@<TRIPOS>MOLECULE
5899266
  42   43    0    0    0
SMALL
NO_CHARGES


@<TRIPOS>ATOM
   1 O1            -2.2327    -2.7285     0.0091 O.2     
   2 N2            -0.0167     1.3826     0.0096 N.pl3   
   3 N3             1.3541    -4.8129    -0.0367 N.pl3   
   4 N4             1.4092    -6.2128    -0.0447 N.pl3   
   5 C5             0.0021    -0.0041     0.0020 C.2     
   6 C6             1.2419     2.1323     0.0017 C.3     
   7 C7            -1.2953     2.0978     0.0196 C.3     
   8 C8            -1.1923    -0.6982     0.0097 C.2     
   9 C9             1.2322    -0.6750    -0.0191 C.2     
  10 C10            1.6663     2.4010    -1.4435 C.3     
  11 C11           -1.7335     2.3389     1.4655 C.3     
  12 C12            0.1101    -2.7959    -0.0140 C.2     
  13 C13           -1.1838    -2.0981     0.0021 C.2     
  14 C14            1.2979    -2.0288    -0.0272 C.2     
  15 C15            0.1648    -4.1873    -0.0220 C.2     
  16 C16            2.6452    -6.8630    -0.0600 C.ar    
  17 C17            2.7017    -8.2509    -0.0680 C.ar    
  18 C18            3.8209    -6.1231    -0.0730 C.ar    
  19 C19            3.9255    -8.8906    -0.0831 C.ar    
  20 C20            5.0414    -6.7692    -0.0881 C.ar    
  21 C21            5.0940    -8.1511    -0.0902 C.ar    
  22 H22            1.1036     3.0801     0.5219 H       
  23 H23            2.0143     1.5509     0.5050 H       
  24 H24           -1.1803     3.0547    -0.4896 H       
  25 H25           -2.0493     1.5012    -0.4939 H       
  26 H26           -2.1299    -0.1625     0.0219 H       
  27 H27            2.1471    -0.1012    -0.0294 H       
  28 H28            1.8046     1.4533    -1.9638 H       
  29 H29            0.8938     2.9825    -1.9469 H       
  30 H30            2.6027     2.9588    -1.4495 H       
  31 H31           -2.6848     2.8710     1.4729 H       
  32 H32           -1.8485     1.3820     1.9747 H       
  33 H33           -0.9795     2.9355     1.9790 H       
  34 H34            2.2585    -2.5222    -0.0435 H       
  35 H35           -0.7485    -4.7637    -0.0164 H       
  36 H36            2.1744    -4.2952    -0.0418 H       
  37 H37            0.5889    -6.7305    -0.0397 H       
  38 H38            1.7895    -8.8291    -0.0621 H       
  39 H39            3.7805    -5.0439    -0.0717 H       
  40 H40            3.9701    -9.9697    -0.0890 H       
  41 H41            5.9557    -6.1946    -0.0986 H       
  42 H42            6.0497    -8.6538    -0.1020 H       
@<TRIPOS>BOND
   1    1   13 2
   2    2    5 1
   3    2    6 1
   4    2    7 1
   5    3    4 1
   6    3   15 1
   7    3   36 1
   8    4   16 1
   9    4   37 1
  10    5    8 2
  11    5    9 1
  12    6   10 1
  13    6   22 1
  14    6   23 1
  15    7   11 1
  16    7   24 1
  17    7   25 1
  18    8   13 1
  19    8   26 1
  20    9   14 2
  21    9   27 1
  22   10   28 1
  23   10   29 1
  24   10   30 1
  25   11   31 1
  26   11   32 1
  27   11   33 1
  28   12   13 1
  29   12   14 1
  30   12   15 2
  31   14   34 1
  32   15   35 1
  33   16   17 ar
  34   16   18 ar
  35   17   19 ar
  36   17   38 1
  37   18   20 ar
  38   18   39 1
  39   19   21 ar
  40   19   40 1
  41   20   21 ar
  42   20   41 1
  43   21   42 1

#	End of record

#	Name: 5896683
#	Creating user name:	landrgr1
#	Creation time:	28. 01. 2015 13:52

#	Modifying user name:	landrgr1
#	Modification time:	28. 01. 2015 13:52

#	Program:	corina 3.48 0006  22.01.2010

@<TRIPOS>MOLECULE
5896683
  41   42    0    0    0
SMALL
NO_CHARGES


@<TRIPOS>ATOM
   1 O1            -0.0144     1.2138     0.0087 O.3     
   2 O2             2.1976     1.1926    -0.0125 O.2     
   3 O3             4.9472    -4.2157     0.9871 O.2     
   4 O4             4.9267    -4.2055    -1.1224 O.2     
   5 N5             0.0021    -0.0041     0.0020 N.2     
   6 N6            -2.3089     0.0057     0.0241 N.pl3   
   7 N7             4.3601    -4.0156    -0.0611 N.pl3   
   8 C8             0.3393    -2.6554    -0.0154 C.ar    
   9 C9             2.6697     3.7916    -0.0031 C.ar    
  10 C10           -1.0882    -2.1725     0.0008 C.3     
  11 C11            1.2306     3.3447     0.0083 C.3     
  12 C12            5.3099     4.6119    -0.0239 C.ar    
  13 C13            3.3184     4.0030    -1.2053 C.ar    
  14 C14            3.3395     3.9956     1.1888 C.ar    
  15 C15            1.0054    -2.8833     1.1742 C.ar    
  16 C16            0.9807    -2.8759    -1.2200 C.ar    
  17 C17            4.6385     4.4129    -1.2158 C.ar    
  18 C18            4.6597     4.4056     1.1784 C.ar    
  19 C19           -1.1086    -0.6656     0.0091 C.2     
  20 C20            2.9579    -3.5418    -0.0452 C.ar    
  21 C21            2.3147    -3.3263     1.1593 C.ar    
  22 C22            2.2900    -3.3189    -1.2348 C.ar    
  23 C23            1.1721     1.8389     0.0007 C.2     
  24 C24            6.7491     5.0588    -0.0352 C.3     
  25 H25           -1.6055    -2.5380    -0.8863 H       
  26 H26           -1.5885    -2.5476     0.8936 H       
  27 H27            0.7398     3.7229     0.9050 H       
  28 H28            0.7228     3.7325    -0.8748 H       
  29 H29            2.7939     3.8476    -2.1365 H       
  30 H30            2.8313     3.8351     2.1282 H       
  31 H31            0.5029    -2.7150     2.1153 H       
  32 H32            0.4587    -2.7024    -2.1494 H       
  33 H33            5.1465     4.5741    -2.1551 H       
  34 H34            5.1842     4.5610     2.1096 H       
  35 H35            2.8354    -3.5037     2.0888 H       
  36 H36            2.7912    -3.4911    -2.1759 H       
  37 H37            6.7914     6.1479    -0.0301 H       
  38 H38            7.2568     4.6713     0.8481 H       
  39 H39            7.2400     4.6803    -0.9318 H       
  40 H40           -2.3220     0.9756     0.0295 H       
  41 H41           -3.1422    -0.4906     0.0294 H       
@<TRIPOS>BOND
   1    1    5 1
   2    1   23 1
   3    2   23 2
   4    3    7 2
   5    4    7 2
   6    5   19 2
   7    6   19 1
   8    6   40 1
   9    6   41 1
  10    7   20 1
  11    8   10 1
  12    8   15 ar
  13    8   16 ar
  14    9   11 1
  15    9   13 ar
  16    9   14 ar
  17   10   19 1
  18   10   25 1
  19   10   26 1
  20   11   23 1
  21   11   27 1
  22   11   28 1
  23   12   17 ar
  24   12   18 ar
  25   12   24 1
  26   13   17 ar
  27   13   29 1
  28   14   18 ar
  29   14   30 1
  30   15   21 ar
  31   15   31 1
  32   16   22 ar
  33   16   32 1
  34   17   33 1
  35   18   34 1
  36   20   21 ar
  37   20   22 ar
  38   21   35 1
  39   22   36 1
  40   24   37 1
  41   24   38 1
  42   24   39 1

#	End of record

#	Name: 5892572
#	Creating user name:	landrgr1
#	Creation time:	28. 01. 2015 13:52

#	Modifying user name:	landrgr1
#	Modification time:	28. 01. 2015 13:52

#	Program:	corina 3.48 0006  22.01.2010

@<TRIPOS>MOLECULE
5892572
  43   46    0    0    0
SMALL
NO_CHARGES


@<TRIPOS>ATOM
   1 S1            -0.0225     1.8097     0.0120 S.3     
   2 O2            -2.5653     2.0123    -0.8756 O.2     
   3 N3            -2.1336    -0.1653    -1.2174 N.am    
   4 N4            -1.7922    -2.3597    -1.4557 N.2     
   5 N5            -2.5298    -1.1438    -3.3848 N.pl3   
   6 C6            -1.4333    -0.5336     0.0129 C.3     
   7 C7            -1.4506    -2.0792    -0.0510 C.3     
   8 C8            -2.1568    -1.2738    -2.0516 C.2     
   9 C9             0.0021    -0.0041     0.0020 C.3     
  10 C10           -2.6850     1.0183    -1.5658 C.2     
  11 C11           -3.4439     1.0333    -2.8370 C.ar    
  12 C12           -3.3532    -0.0653    -3.7085 C.ar    
  13 C13           -4.2470     2.1221    -3.1726 C.ar    
  14 C14           -4.0813    -0.0658    -4.8894 C.ar    
  15 C15            1.6887     2.2294    -0.0021 C.ar    
  16 C16            2.0788     3.5631     0.0013 C.ar    
  17 C17           -4.9576     2.1067    -4.3543 C.ar    
  18 C18           -4.8788     1.0158    -5.2057 C.ar    
  19 C19            2.6518     1.2272    -0.0109 C.ar    
  20 C20            3.4209     3.8883    -0.0092 C.ar    
  21 C21            4.3762     2.8886    -0.0237 C.ar    
  22 C22            3.9917     1.5598    -0.0214 C.ar    
  23 C23            1.0385     4.6533     0.0161 C.3     
  24 C24            5.8397     3.2475    -0.0362 C.3     
  25 H25           -1.9737    -0.1754     0.8891 H       
  26 H26           -2.2114    -2.4826     0.6172 H       
  27 H27           -0.4689    -2.4846     0.1938 H       
  28 H28            0.5123    -0.3556    -0.8948 H       
  29 H29            0.5293    -0.3651     0.8851 H       
  30 H30           -2.2314    -1.7743    -4.0588 H       
  31 H31           -4.3125     2.9729    -2.5106 H       
  32 H32           -4.0241    -0.9105    -5.5600 H       
  33 H33           -5.5801     2.9492    -4.6173 H       
  34 H34           -5.4451     1.0125    -6.1253 H       
  35 H35            2.3523     0.1896    -0.0091 H       
  36 H36            3.7248     4.9246    -0.0066 H       
  37 H37            4.7405     0.7816    -0.0282 H       
  38 H38            0.7967     4.9109     1.0473 H       
  39 H39            1.4270     5.5332    -0.4966 H       
  40 H40            0.1393     4.3044    -0.4916 H       
  41 H41            6.2027     3.3288     0.9883 H       
  42 H42            6.3995     2.4723    -0.5595 H       
  43 H43            5.9756     4.2010    -0.5466 H       
@<TRIPOS>BOND
   1    1    9 1
   2    1   15 1
   3    2   10 2
   4    3    6 1
   5    3    8 1
   6    3   10 am
   7    4    7 1
   8    4    8 2
   9    5    8 1
  10    5   12 1
  11    5   30 1
  12    6    7 1
  13    6    9 1
  14    6   25 1
  15    7   26 1
  16    7   27 1
  17    9   28 1
  18    9   29 1
  19   10   11 1
  20   11   12 ar
  21   11   13 ar
  22   12   14 ar
  23   13   17 ar
  24   13   31 1
  25   14   18 ar
  26   14   32 1
  27   15   16 ar
  28   15   19 ar
  29   16   20 ar
  30   16   23 1
  31   17   18 ar
  32   17   33 1
  33   18   34 1
  34   19   22 ar
  35   19   35 1
  36   20   21 ar
  37   20   36 1
  38   21   22 ar
  39   21   24 1
  40   22   37 1
  41   23   38 1
  42   23   39 1
  43   23   40 1
  44   24   41 1
  45   24   42 1
  46   24   43 1

#	End of record

#	Name: 5892307
#	Creating user name:	landrgr1
#	Creation time:	28. 01. 2015 13:52

#	Modifying user name:	landrgr1
#	Modification time:	28. 01. 2015 13:52

#	Program:	corina 3.48 0006  22.01.2010

@<TRIPOS>MOLECULE
5892307
  40   41    0    0    0
SMALL
NO_CHARGES


@<TRIPOS>ATOM
   1 Br1          -10.3679    -7.3587     0.0621 Br      
   2 O2            -0.0173     1.4248     0.0099 O.3     
   3 O3            -3.0535    -3.9068     0.0102 O.3     
   4 O4            -3.7583    -1.8100     0.0282 O.2     
   5 N5            -4.2167    -4.2680     0.0194 N.2     
   6 N6            -3.4885    -6.4765     0.0006 N.pl3   
   7 C7            -1.4333    -0.5336     0.0129 C.3     
   8 C8            -1.4126    -2.0635     0.0045 C.3     
   9 C9             0.0021    -0.0041     0.0020 C.3     
  10 C10           -2.8264    -2.5851     0.0152 C.2     
  11 C11            1.1850     2.0582     0.0018 C.ar    
  12 C12            1.2402     3.4444     0.0087 C.ar    
  13 C13            2.3594     1.3196    -0.0077 C.ar    
  14 C14           -5.9175    -5.9767     0.0265 C.ar    
  15 C15           -4.5040    -5.5377     0.0153 C.2     
  16 C16            2.4637     4.0858     0.0004 C.ar    
  17 C17            3.5803     1.9658    -0.0159 C.ar    
  18 C18           -6.2284    -7.3366     0.0221 C.ar    
  19 C19           -6.9438    -5.0321     0.0472 C.ar    
  20 C20            3.6326     3.3475    -0.0152 C.ar    
  21 C21           -7.5476    -7.7399     0.0330 C.ar    
  22 C22           -8.2594    -5.4470     0.0580 C.ar    
  23 C23           -8.5621    -6.7979     0.0478 C.ar    
  24 H24           -1.9605    -0.1726    -0.8702 H       
  25 H25           -1.9435    -0.1821     0.9097 H       
  26 H26            0.5123    -0.3556    -0.8948 H       
  27 H27            0.5293    -0.3651     0.8851 H       
  28 H28           -0.9024    -2.4150    -0.8923 H       
  29 H29           -0.8854    -2.4246     0.8875 H       
  30 H30            0.3274     4.0215     0.0202 H       
  31 H31            2.3191     0.2404    -0.0082 H       
  32 H32           -5.4378    -8.0722     0.0099 H       
  33 H33           -6.7088    -3.9780     0.0551 H       
  34 H34            2.5071     5.1650     0.0058 H       
  35 H35            4.4948     1.3913    -0.0233 H       
  36 H36            4.5881     3.8509    -0.0224 H       
  37 H37           -7.7894    -8.7924     0.0297 H       
  38 H38           -9.0548    -4.7166     0.0743 H       
  39 H39           -2.5622    -6.1888    -0.0067 H       
  40 H40           -3.7026    -7.4225    -0.0024 H       
@<TRIPOS>BOND
   1    1   23 1
   2    2    9 1
   3    2   11 1
   4    3    5 1
   5    3   10 1
   6    4   10 2
   7    5   15 2
   8    6   15 1
   9    6   39 1
  10    6   40 1
  11    7    8 1
  12    7    9 1
  13    7   24 1
  14    7   25 1
  15    8   10 1
  16    8   28 1
  17    8   29 1
  18    9   26 1
  19    9   27 1
  20   11   12 ar
  21   11   13 ar
  22   12   16 ar
  23   12   30 1
  24   13   17 ar
  25   13   31 1
  26   14   15 1
  27   14   18 ar
  28   14   19 ar
  29   16   20 ar
  30   16   34 1
  31   17   20 ar
  32   17   35 1
  33   18   21 ar
  34   18   32 1
  35   19   22 ar
  36   19   33 1
  37   20   36 1
  38   21   23 ar
  39   21   37 1
  40   22   23 ar
  41   22   38 1

#	End of record

#	Name: 5889339
#	Creating user name:	landrgr1
#	Creation time:	28. 01. 2015 13:52

#	Modifying user name:	landrgr1
#	Modification time:	28. 01. 2015 13:52

#	Program:	corina 3.48 0006  22.01.2010

@<TRIPOS>MOLECULE
5889339
  35   36    0    0    0
SMALL
NO_CHARGES


@<TRIPOS>ATOM
   1 S1             0.0335     1.7152    -0.1450 S.3     
   2 S2             2.5375     3.6171    -0.2054 S.3     
   3 O3            -2.3013     0.1795    -0.1032 O.2     
   4 O4            -8.2317    -5.5370    -0.3856 O.2     
   5 N5            -2.9341    -2.3998     0.0410 N.pl3   
   6 N6            -1.6158    -1.9256     0.0416 N.am    
   7 N7             2.7109     1.1364    -0.0486 N.2     
   8 N8             3.9040     1.5445    -0.0465 N.2     
   9 C9            -3.1720    -3.7190     0.0099 C.2     
  10 C10           -4.4857    -4.1910    -0.0926 C.2     
  11 C11           -4.7491    -5.5756    -0.0008 C.2     
  12 C12           -5.5508    -3.2830    -0.2823 C.2     
  13 C13           -2.0250    -4.6935     0.0855 C.3     
  14 C14           -6.0235    -6.0308    -0.1006 C.2     
  15 C15           -6.8235    -3.7430    -0.3815 C.2     
  16 C16            0.0421    -0.0914    -0.0338 C.3     
  17 C17           -1.3759    -0.6015    -0.0344 C.2     
  18 C18           -7.0828    -5.1241    -0.2955 C.2     
  19 C19            1.7668     2.0312    -0.1253 C.2     
  20 C20            4.1093     2.8192    -0.1203 C.2     
  21 C21            5.4526     3.5021    -0.1321 C.3     
  22 H22           -3.6747    -1.7738     0.0631 H       
  23 H23           -3.9368    -6.2715     0.1484 H       
  24 H24           -5.3524    -2.2234    -0.3481 H       
  25 H25           -1.8247    -4.9389     1.1284 H       
  26 H26           -2.2837    -5.6021    -0.4583 H       
  27 H27           -1.1368    -4.2445    -0.3592 H       
  28 H28           -0.8757    -2.5502     0.0966 H       
  29 H29           -6.2253    -7.0895    -0.0308 H       
  30 H30           -7.6383    -3.0490    -0.5262 H       
  31 H31            0.5776    -0.5054    -0.8881 H       
  32 H32            0.5375    -0.3963     0.8880 H       
  33 H33            5.7532     3.7303     0.8905 H       
  34 H34            6.1910     2.8436    -0.5895 H       
  35 H35            5.3852     4.4265    -0.7059 H       
@<TRIPOS>BOND
   1    1   16 1
   2    1   19 1
   3    2   19 1
   4    2   20 1
   5    3   17 2
   6    4   18 2
   7    5    6 1
   8    5    9 1
   9    5   22 1
  10    6   17 am
  11    6   28 1
  12    7    8 1
  13    7   19 2
  14    8   20 2
  15    9   10 2
  16    9   13 1
  17   10   11 1
  18   10   12 1
  19   11   14 2
  20   11   23 1
  21   12   15 2
  22   12   24 1
  23   13   25 1
  24   13   26 1
  25   13   27 1
  26   14   18 1
  27   14   29 1
  28   15   18 1
  29   15   30 1
  30   16   17 1
  31   16   31 1
  32   16   32 1
  33   20   21 1
  34   21   33 1
  35   21   34 1
  36   21   35 1

#	End of record

#	Name: 5880634
#	Creating user name:	landrgr1
#	Creation time:	28. 01. 2015 13:52

#	Modifying user name:	landrgr1
#	Modification time:	28. 01. 2015 13:52

#	Program:	corina 3.48 0006  22.01.2010

@<TRIPOS>MOLECULE
5880634
  43   46    0    0    0
SMALL
NO_CHARGES


@<TRIPOS>ATOM
   1 O1            -1.6478     4.9304    -2.0488 O.2     
   2 O2            -3.9888    -1.1175     0.0076 O.2     
   3 N3            -0.3559     1.3008    -1.3174 N.pl3   
   4 N4            -0.2884    -0.0761    -1.1386 N.pl3   
   5 N5            -2.1057     2.9015    -1.3678 N.2     
   6 N6            -2.3410     0.5822    -0.7443 N.2     
   7 N7            -1.8991    -1.7470    -0.4018 N.am    
   8 C8             0.6925     2.2834    -1.5989 C.3     
   9 C9             0.0729     3.3933    -2.4585 C.3     
  10 C10            1.2076     2.8649    -0.3075 C.ar    
  11 C11           -1.6761     1.6617    -1.1351 C.2     
  12 C12           -1.2854     3.7748    -1.9399 C.2     
  13 C13           -1.5378    -0.4700    -0.7434 C.2     
  14 C14            2.5599     3.1026    -0.1474 C.ar    
  15 C15            0.3271     3.1657     0.7148 C.ar    
  16 C16            3.0324     3.6360     1.0371 C.ar    
  17 C17            0.7997     3.6991     1.8994 C.ar    
  18 C18            2.1526     3.9319     2.0614 C.ar    
  19 C19           -3.1665    -2.0114    -0.0273 C.2     
  20 C20           -3.5560    -3.3884     0.3410 C.ar    
  21 C21           -4.8315    -3.6445     0.8482 C.ar    
  22 C22           -2.6524    -4.4400     0.1780 C.ar    
  23 C23           -5.1886    -4.9321     1.1900 C.ar    
  24 C24           -5.8156    -2.5165     1.0221 C.3     
  25 C25           -3.0226    -5.7232     0.5239 C.ar    
  26 C26           -4.2860    -5.9691     1.0312 C.ar    
  27 H27            1.5088     1.8074    -2.1422 H       
  28 H28            0.7231     4.2679    -2.4383 H       
  29 H29           -0.0214     3.0411    -3.4857 H       
  30 H30            0.4878    -0.6433    -1.2682 H       
  31 H31            3.2473     2.8714    -0.9477 H       
  32 H32           -0.7299     2.9844     0.5879 H       
  33 H33           -1.2426    -2.4606    -0.4297 H       
  34 H34            4.0890     3.8210     1.1625 H       
  35 H35            0.1117     3.9345     2.6979 H       
  36 H36            2.5218     4.3483     2.9870 H       
  37 H37           -1.6660    -4.2494    -0.2182 H       
  38 H38           -6.1747    -5.1316     1.5827 H       
  39 H39           -6.3187    -2.3238     0.0746 H       
  40 H40           -6.5534    -2.7910     1.7760 H       
  41 H41           -5.2864    -1.6187     1.3417 H       
  42 H42           -2.3247    -6.5378     0.3980 H       
  43 H43           -4.5707    -6.9755     1.3004 H       
@<TRIPOS>BOND
   1    1   12 2
   2    2   19 2
   3    3    4 1
   4    3    8 1
   5    3   11 1
   6    4   13 1
   7    4   30 1
   8    5   11 2
   9    5   12 1
  10    6   11 1
  11    6   13 2
  12    7   13 1
  13    7   19 am
  14    7   33 1
  15    8    9 1
  16    8   10 1
  17    8   27 1
  18    9   12 1
  19    9   28 1
  20    9   29 1
  21   10   14 ar
  22   10   15 ar
  23   14   16 ar
  24   14   31 1
  25   15   17 ar
  26   15   32 1
  27   16   18 ar
  28   16   34 1
  29   17   18 ar
  30   17   35 1
  31   18   36 1
  32   19   20 1
  33   20   21 ar
  34   20   22 ar
  35   21   23 ar
  36   21   24 1
  37   22   25 ar
  38   22   37 1
  39   23   26 ar
  40   23   38 1
  41   24   39 1
  42   24   40 1
  43   24   41 1
  44   25   26 ar
  45   25   42 1
  46   26   43 1

#	End of record

#	Name: 5875400
#	Creating user name:	landrgr1
#	Creation time:	28. 01. 2015 13:52

#	Modifying user name:	landrgr1
#	Modification time:	28. 01. 2015 13:52

#	Program:	corina 3.48 0006  22.01.2010

@<TRIPOS>MOLECULE
5875400
  33   34    0    0    0
SMALL
NO_CHARGES


@<TRIPOS>ATOM
   1 O1             0.6310     1.3259    -0.0978 O.3     
   2 O2             4.4427    -8.8814     0.5539 O.3     
   3 O3             2.2269    -4.4645     0.3640 O.2     
   4 N4             0.0586    -4.1737    -0.0204 N.am    
   5 N5             1.0172    -6.3010     0.0513 N.am    
   6 C6             0.2038    -2.7800    -0.0397 C.ar    
   7 C7             1.3511    -2.2086    -0.5735 C.ar    
   8 C8            -0.8020    -1.9699     0.4698 C.ar    
   9 C9             0.4903    -0.0264    -0.0786 C.ar    
  10 C10            1.4933    -0.8351    -0.5926 C.ar    
  11 C11           -0.6584    -0.5965     0.4501 C.ar    
  12 C12            1.1402    -4.9617     0.1397 C.2     
  13 C13            3.1873    -9.3018     0.3029 C.2     
  14 C14            2.0087    -8.4430     0.1283 C.2     
  15 C15            2.1309    -7.1125     0.2162 C.2     
  16 C16            3.2024   -10.6636     0.2387 C.2     
  17 C17            4.5343   -11.0654     0.4634 C.2     
  18 C18            5.2590    -9.9454     0.6514 C.2     
  19 C19           -0.4408     2.0974     0.4482 C.3     
  20 H20            2.1322    -2.8381    -0.9734 H       
  21 H21           -1.6966    -2.4136     0.8812 H       
  22 H22            2.3859    -0.3905    -1.0075 H       
  23 H23           -1.4409     0.0338     0.8461 H       
  24 H24           -0.8203    -4.5712    -0.1223 H       
  25 H25            0.1503    -6.6976    -0.1276 H       
  26 H26            1.0435    -8.8847    -0.0708 H       
  27 H27            3.0961    -6.6708     0.4154 H       
  28 H28            2.3571   -11.3094     0.0522 H       
  29 H29            4.9043   -12.0798     0.4814 H       
  30 H30            6.3204    -9.9083     0.8474 H       
  31 H31           -1.3564     1.8904    -0.1058 H       
  32 H32           -0.5822     1.8325     1.4960 H       
  33 H33           -0.2012     3.1580     0.3707 H       
@<TRIPOS>BOND
   1    1    9 1
   2    1   19 1
   3    2   13 1
   4    2   18 1
   5    3   12 2
   6    4    6 1
   7    4   12 am
   8    4   24 1
   9    5   12 am
  10    5   15 1
  11    5   25 1
  12    6    7 ar
  13    6    8 ar
  14    7   10 ar
  15    7   20 1
  16    8   11 ar
  17    8   21 1
  18    9   10 ar
  19    9   11 ar
  20   10   22 1
  21   11   23 1
  22   13   14 1
  23   13   16 2
  24   14   15 2
  25   14   26 1
  26   15   27 1
  27   16   17 1
  28   16   28 1
  29   17   18 2
  30   17   29 1
  31   18   30 1
  32   19   31 1
  33   19   32 1
  34   19   33 1

#	End of record

#	Name: 5868062
#	Creating user name:	landrgr1
#	Creation time:	28. 01. 2015 13:52

#	Modifying user name:	landrgr1
#	Modification time:	28. 01. 2015 13:52

#	Program:	corina 3.48 0006  22.01.2010

@<TRIPOS>MOLECULE
5868062
  34   36    0    0    0
SMALL
NO_CHARGES


@<TRIPOS>ATOM
   1 O1             0.9905    -4.5570    -0.2497 O.2     
   2 N2             3.4358     1.5557    -0.8273 N.ar    
   3 N3            -5.3757    -6.2585    -0.7510 N.ar    
   4 C4            -0.7593    -1.4292    -0.4059 C.3     
   5 C5            -1.9070    -2.4469    -0.3960 C.3     
   6 C6             0.5209    -2.2249    -0.3464 C.2     
   7 C7            -1.2695    -3.8126    -0.3309 C.2     
   8 C8             0.1823    -3.6461    -0.3025 C.2     
   9 C9             1.7687    -1.7111    -0.3360 C.2     
  10 C10           -1.9287    -4.9897    -0.3029 C.2     
  11 C11            1.9702    -0.2645    -0.5148 C.ar    
  12 C12           -3.3906    -5.0184    -0.4674 C.ar    
  13 C13            0.8747     0.6119    -0.5343 C.ar    
  14 C14           -4.1300    -3.8262    -0.4909 C.ar    
  15 C15            3.2570     0.2611    -0.6679 C.ar    
  16 C16           -4.0677    -6.2344    -0.6035 C.ar    
  17 C17            1.1195     1.9622    -0.7045 C.ar    
  18 C18           -5.5012    -3.9091    -0.6484 C.ar    
  19 C19            2.4238     2.4019    -0.8495 C.ar    
  20 C20           -6.0951    -5.1527    -0.7765 C.ar    
  21 H21           -0.7905    -0.8398    -1.3223 H       
  22 H22           -0.8329    -0.7745     0.4625 H       
  23 H23           -2.5397    -2.2880     0.4773 H       
  24 H24           -2.4973    -2.3533    -1.3075 H       
  25 H25            2.6194    -2.3617    -0.1963 H       
  26 H26           -1.3832    -5.9108    -0.1597 H       
  27 H27           -0.1332     0.2417    -0.4192 H       
  28 H28           -3.6409    -2.8687    -0.3886 H       
  29 H29            4.1109    -0.4001    -0.6555 H       
  30 H30           -3.5133    -7.1611    -0.5871 H       
  31 H31            0.3010     2.6664    -0.7250 H       
  32 H32           -6.1028    -3.0125    -0.6708 H       
  33 H33            2.6165     3.4562    -0.9828 H       
  34 H34           -7.1660    -5.2191    -0.8996 H       
@<TRIPOS>BOND
   1    1    8 2
   2    2   15 ar
   3    2   19 ar
   4    3   16 ar
   5    3   20 ar
   6    4    5 1
   7    4    6 1
   8    4   21 1
   9    4   22 1
  10    5    7 1
  11    5   23 1
  12    5   24 1
  13    6    8 1
  14    6    9 2
  15    7    8 1
  16    7   10 2
  17    9   11 1
  18    9   25 1
  19   10   12 1
  20   10   26 1
  21   11   13 ar
  22   11   15 ar
  23   12   14 ar
  24   12   16 ar
  25   13   17 ar
  26   13   27 1
  27   14   18 ar
  28   14   28 1
  29   15   29 1
  30   16   30 1
  31   17   19 ar
  32   17   31 1
  33   18   20 ar
  34   18   32 1
  35   19   33 1
  36   20   34 1

#	End of record

#	Name: 5860995
#	Creating user name:	landrgr1
#	Creation time:	28. 01. 2015 13:52

#	Modifying user name:	landrgr1
#	Modification time:	28. 01. 2015 13:52

#	Program:	corina 3.48 0006  22.01.2010

@<TRIPOS>MOLECULE
5860995
  49   50    0    0    0
SMALL
NO_CHARGES


@<TRIPOS>ATOM
   1 O1             2.2246     1.5471     0.1305 O.2     
   2 O2            -2.1913     1.4311     0.4240 O.2     
   3 O3            -0.3471     5.4451     0.1302 O.2     
   4 N4            -0.0013     1.4615     0.2847 N.am    
   5 N5             3.9651    10.2703    -0.0089 N.3     
   6 N6             2.1946     5.7094     0.1124 N.pl3   
   7 N7            -1.3019     3.4322     0.2799 N.am    
   8 C8             3.0465     8.0013     0.0608 C.3     
   9 C9             0.0243    -0.0019     0.3472 C.3     
  10 C10            4.2947     8.8501    -0.1888 C.3     
  11 C11            3.3898     6.5221    -0.1266 C.3     
  12 C12            0.1306    -0.4483     1.8068 C.3     
  13 C13            1.1090     3.6084     0.1152 C.2     
  14 C14            1.1614     2.1368     0.1763 C.2     
  15 C15            0.1569    -1.9537     1.8711 C.ar    
  16 C16            2.2593     4.3673     0.0034 C.2     
  17 C17           -1.1798     2.0984     0.3310 C.2     
  18 C18           -0.2233     4.2356     0.1762 C.2     
  19 C19            3.6210    10.5578     1.3900 C.3     
  20 C20            5.0659    11.1284    -0.4673 C.3     
  21 C21            1.3632    -2.6268     1.8189 C.ar    
  22 C22           -1.0249    -2.6612     1.9880 C.ar    
  23 C23            1.3873    -4.0076     1.8778 C.ar    
  24 C24           -1.0008    -4.0421     2.0469 C.ar    
  25 C25            0.2051    -4.7154     1.9894 C.ar    
  26 H26            2.6926     8.1661     1.0785 H       
  27 H27            2.2666     8.2856    -0.6456 H       
  28 H28           -0.8919    -0.4003    -0.0887 H       
  29 H29            0.8837    -0.3745    -0.2102 H       
  30 H30            4.6487     8.6854    -1.2065 H       
  31 H31            5.0747     8.5658     0.5176 H       
  32 H32            4.1697     6.2378     0.5798 H       
  33 H33            3.7437     6.3574    -1.1443 H       
  34 H34            1.0468    -0.0500     2.2427 H       
  35 H35           -0.7288    -0.0758     2.3642 H       
  36 H36            1.3567     6.1369     0.3491 H       
  37 H37            3.2096     3.8849    -0.1713 H       
  38 H38           -2.1863     3.8289     0.3179 H       
  39 H39            4.4679    10.3117     2.0305 H       
  40 H40            3.3813    11.6159     1.4951 H       
  41 H41            2.7583     9.9591     1.6823 H       
  42 H42            5.2537    10.9444    -1.5251 H       
  43 H43            4.7956    12.1744    -0.3228 H       
  44 H44            5.9652    10.9030     0.1059 H       
  45 H45            2.2868    -2.0738     1.7317 H       
  46 H46           -1.9670    -2.1352     2.0335 H       
  47 H47            2.3297    -4.5335     1.8363 H       
  48 H48           -1.9241    -4.5949     2.1386 H       
  49 H49            0.2239    -5.7943     2.0351 H       
@<TRIPOS>BOND
   1    1   14 2
   2    2   17 2
   3    3   18 2
   4    4    9 1
   5    4   14 am
   6    4   17 am
   7    5   10 1
   8    5   19 1
   9    5   20 1
  10    6   11 1
  11    6   16 1
  12    6   36 1
  13    7   17 am
  14    7   18 am
  15    7   38 1
  16    8   10 1
  17    8   11 1
  18    8   26 1
  19    8   27 1
  20    9   12 1
  21    9   28 1
  22    9   29 1
  23   10   30 1
  24   10   31 1
  25   11   32 1
  26   11   33 1
  27   12   15 1
  28   12   34 1
  29   12   35 1
  30   13   14 1
  31   13   16 2
  32   13   18 1
  33   15   21 ar
  34   15   22 ar
  35   16   37 1
  36   19   39 1
  37   19   40 1
  38   19   41 1
  39   20   42 1
  40   20   43 1
  41   20   44 1
  42   21   23 ar
  43   21   45 1
  44   22   24 ar
  45   22   46 1
  46   23   25 ar
  47   23   47 1
  48   24   25 ar
  49   24   48 1
  50   25   49 1

#	End of record

#	Name: 5855389
#	Creating user name:	landrgr1
#	Creation time:	28. 01. 2015 13:52

#	Modifying user name:	landrgr1
#	Modification time:	28. 01. 2015 13:52

#	Program:	corina 3.48 0006  22.01.2010

@<TRIPOS>MOLECULE
5855389
  42   44    0    0    0
SMALL
NO_CHARGES


@<TRIPOS>ATOM
   1 S1            -1.7789    -9.8900     1.0016 S.2     
   2 O2             0.3711    -6.5899    -2.0344 O.2     
   3 O3            -0.1028     1.3758     0.0834 O.3     
   4 N4             0.0894    -4.1372    -0.1972 N.pl3   
   5 N5            -1.6030    -7.1902     0.7090 N.am    
   6 N6            -0.4913    -8.3245    -0.8103 N.am    
   7 C7            -1.0611    -4.8766    -0.0826 C.2     
   8 C8            -0.9903    -6.2668    -0.1559 C.2     
   9 C9             0.0492    -2.7571    -0.1283 C.ar    
  10 C10            1.3729    -4.8171    -0.3879 C.3     
  11 C11           -1.1838    -2.1060     0.0612 C.ar    
  12 C12           -2.3134    -4.2572     0.1080 C.2     
  13 C13           -0.2932    -7.0260    -1.1077 C.2     
  14 C14           -2.4045    -2.9066     0.1821 C.2     
  15 C15           -1.2751    -8.4230     0.2769 C.2     
  16 C16            1.2131    -2.0056    -0.2432 C.ar    
  17 C17           -1.2304    -0.7100     0.1321 C.ar    
  18 C18            2.0916    -4.9367     0.9575 C.3     
  19 C19           -2.4383    -6.8706     1.8693 C.3     
  20 C20           -0.0629     0.0185     0.0156 C.ar    
  21 C21            1.1548    -0.6303    -0.1713 C.ar    
  22 C22            0.0625    -9.4563    -1.5578 C.3     
  23 C23            1.1405     2.0686    -0.0445 C.3     
  24 H24            1.1995    -5.8125    -0.7970 H       
  25 H25            1.9893    -4.2425    -1.0792 H       
  26 H26           -3.2041    -4.8615     0.1956 H       
  27 H27           -3.3618    -2.4286     0.3283 H       
  28 H28            2.1626    -2.4991    -0.3885 H       
  29 H29           -2.1738    -0.2046     0.2770 H       
  30 H30            1.4752    -5.5114     1.6489 H       
  31 H31            3.0465    -5.4427     0.8156 H       
  32 H32            2.2649    -3.9414     1.3666 H       
  33 H33           -3.4881    -6.8855     1.5764 H       
  34 H34           -2.2692    -7.6090     2.6531 H       
  35 H35           -2.1790    -5.8796     2.2417 H       
  36 H36            2.0617    -0.0508    -0.2612 H       
  37 H37            1.0331    -9.7263    -1.1418 H       
  38 H38           -0.6144   -10.3073    -1.4828 H       
  39 H39            0.1808    -9.1772    -2.6048 H       
  40 H40            1.5880     1.8367    -1.0109 H       
  41 H41            0.9672     3.1423     0.0274 H       
  42 H42            1.8147     1.7553     0.7527 H       
@<TRIPOS>BOND
   1    1   15 2
   2    2   13 2
   3    3   20 1
   4    3   23 1
   5    4    7 1
   6    4    9 1
   7    4   10 1
   8    5    8 1
   9    5   15 am
  10    5   19 1
  11    6   13 am
  12    6   15 am
  13    6   22 1
  14    7    8 2
  15    7   12 1
  16    8   13 1
  17    9   11 ar
  18    9   16 ar
  19   10   18 1
  20   10   24 1
  21   10   25 1
  22   11   14 1
  23   11   17 ar
  24   12   14 2
  25   12   26 1
  26   14   27 1
  27   16   21 ar
  28   16   28 1
  29   17   20 ar
  30   17   29 1
  31   18   30 1
  32   18   31 1
  33   18   32 1
  34   19   33 1
  35   19   34 1
  36   19   35 1
  37   20   21 ar
  38   21   36 1
  39   22   37 1
  40   22   38 1
  41   22   39 1
  42   23   40 1
  43   23   41 1
  44   23   42 1

#	End of record

#	Name: 5845692
#	Creating user name:	landrgr1
#	Creation time:	28. 01. 2015 13:52

#	Modifying user name:	landrgr1
#	Modification time:	28. 01. 2015 13:52

#	Program:	corina 3.48 0006  22.01.2010

@<TRIPOS>MOLECULE
5845692
  35   36    0    0    0
SMALL
NO_CHARGES


@<TRIPOS>ATOM
   1 S1            -0.0219     1.7609     0.0117 S.3     
   2 O2             0.2748     3.6388     1.6437 O.2     
   3 O3             3.5725     1.6245    -1.3821 O.2     
   4 N4             2.0402     4.7716     2.3789 N.am    
   5 N5             2.1481    -0.0570    -1.1705 N.am    
   6 C6             2.0792     6.5979     4.0052 C.3     
   7 C7             1.2010     5.5984     3.2498 C.3     
   8 C8             1.2027     7.4613     4.9147 C.3     
   9 C9             2.0810     8.4608     5.6701 C.3     
  10 C10            1.0657    -0.6933    -0.5812 C.ar    
  11 C11            0.0021    -0.0041     0.0020 C.ar    
  12 C12            1.7233     2.0507    -0.0034 C.2     
  13 C13            1.4793     3.8155     1.6124 C.2     
  14 C14            2.2900     3.0167     0.7711 C.2     
  15 C15            2.5443     1.1926    -0.8987 C.2     
  16 C16            1.0479    -2.0888    -0.5744 C.ar    
  17 C17           -1.0508    -0.7019     0.5815 C.ar    
  18 C18           -0.0011    -2.7722     0.0021 C.ar    
  19 C19           -1.0516    -2.0821     0.5817 C.ar    
  20 H20            2.8078     6.0572     4.6094 H       
  21 H21            2.6007     7.2354     3.2913 H       
  22 H22            0.4724     6.1390     2.6456 H       
  23 H23            0.6795     4.9609     3.9637 H       
  24 H24            0.4742     8.0020     4.3105 H       
  25 H25            0.6812     6.8238     5.6286 H       
  26 H26            2.9996     4.9124     2.3540 H       
  27 H27            1.4566     9.0759     6.3180 H       
  28 H28            2.8095     7.9202     6.2743 H       
  29 H29            2.6025     9.0983     4.9562 H       
  30 H30            2.6568    -0.5552    -1.8292 H       
  31 H31            3.3583     3.1734     0.7433 H       
  32 H32            1.8622    -2.6374    -1.0242 H       
  33 H33           -1.8705    -0.1628     1.0332 H       
  34 H34           -0.0038    -3.8522     0.0009 H       
  35 H35           -1.8702    -2.6226     1.0336 H       
@<TRIPOS>BOND
   1    1   11 1
   2    1   12 1
   3    2   13 2
   4    3   15 2
   5    4    7 1
   6    4   13 am
   7    4   26 1
   8    5   10 1
   9    5   15 am
  10    5   30 1
  11    6    7 1
  12    6    8 1
  13    6   20 1
  14    6   21 1
  15    7   22 1
  16    7   23 1
  17    8    9 1
  18    8   24 1
  19    8   25 1
  20    9   27 1
  21    9   28 1
  22    9   29 1
  23   10   11 ar
  24   10   16 ar
  25   11   17 ar
  26   12   14 2
  27   12   15 1
  28   13   14 1
  29   14   31 1
  30   16   18 ar
  31   16   32 1
  32   17   19 ar
  33   17   33 1
  34   18   19 ar
  35   18   34 1
  36   19   35 1

#	End of record

#	Name: 5833591
#	Creating user name:	landrgr1
#	Creation time:	28. 01. 2015 13:52

#	Modifying user name:	landrgr1
#	Modification time:	28. 01. 2015 13:52

#	Program:	corina 3.48 0006  22.01.2010

@<TRIPOS>MOLECULE
5833591
  30   31    0    0    0
SMALL
NO_CHARGES


@<TRIPOS>ATOM
   1 Br1           -5.3097    -3.9951     9.0552 Br      
   2 S2            -0.0218     1.7546     0.0117 S.3     
   3 O3            -2.6755    -1.9688     1.6813 O.3     
   4 O4            -0.9649    -0.7352     2.3490 O.2     
   5 N5            -2.9442    -2.1784     2.8507 N.2     
   6 N6            -4.7456    -3.4777     2.1615 N.pl3   
   7 C7            -1.2174    -0.8895     0.0081 C.3     
   8 C8             0.0021    -0.0041     0.0020 C.2     
   9 C9            -4.2922    -3.1785     4.5813 C.ar    
  10 C10            1.2646    -0.4342    -0.0123 C.2     
  11 C11           -5.3860    -3.9768     4.9161 C.ar    
  12 C12           -3.5039    -2.6258     5.5908 C.ar    
  13 C13           -3.9656    -2.9238     3.1603 C.2     
  14 C14           -1.6108    -1.1928     1.4309 C.2     
  15 C15            2.2216     0.5659    -0.0161 C.2     
  16 C16           -5.6823    -4.2154     6.2421 C.ar    
  17 C17           -3.8096    -2.8712     6.9134 C.ar    
  18 C18            1.7362     1.8083    -0.0048 C.2     
  19 C19           -4.8967    -3.6639     7.2398 C.ar    
  20 H20           -2.0389    -0.3799    -0.4953 H       
  21 H21           -0.9932    -1.8202    -0.5131 H       
  22 H22            1.5208    -1.4834    -0.0201 H       
  23 H23           -6.0000    -4.4070     4.1387 H       
  24 H24           -2.6556    -2.0073     5.3374 H       
  25 H25            3.2810     0.3563    -0.0270 H       
  26 H26           -6.5290    -4.8333     6.5025 H       
  27 H27           -3.2000    -2.4438     7.6958 H       
  28 H28            2.3315     2.7094    -0.0060 H       
  29 H29           -4.5315    -3.3108     1.2303 H       
  30 H30           -5.5066    -4.0331     2.3923 H       
@<TRIPOS>BOND
   1    1   19 1
   2    2    8 1
   3    2   18 1
   4    3    5 1
   5    3   14 1
   6    4   14 2
   7    5   13 2
   8    6   13 1
   9    6   29 1
  10    6   30 1
  11    7    8 1
  12    7   14 1
  13    7   20 1
  14    7   21 1
  15    8   10 2
  16    9   11 ar
  17    9   12 ar
  18    9   13 1
  19   10   15 1
  20   10   22 1
  21   11   16 ar
  22   11   23 1
  23   12   17 ar
  24   12   24 1
  25   15   18 2
  26   15   25 1
  27   16   19 ar
  28   16   26 1
  29   17   19 ar
  30   17   27 1
  31   18   28 1

#	End of record

#	Name: 5833390
#	Creating user name:	landrgr1
#	Creation time:	28. 01. 2015 13:52

#	Modifying user name:	landrgr1
#	Modification time:	28. 01. 2015 13:52

#	Program:	corina 3.48 0006  22.01.2010

@<TRIPOS>MOLECULE
5833390
  48   50    0    0    0
SMALL
NO_CHARGES


@<TRIPOS>ATOM
   1 S1            -2.6048     1.1586     0.4625 S.2     
   2 O2             2.2246     1.5472     0.1343 O.2     
   3 O3            -0.3478     5.4453     0.1277 O.2     
   4 N4            -0.0014     1.4617     0.2864 N.am    
   5 N5            -1.3023     3.4323     0.2777 N.am    
   6 N6             2.1939     5.7098     0.1124 N.pl3   
   7 N7             2.3131    10.0114    -0.8580 N.ar    
   8 C8            -1.1571    -2.6787     1.8819 C.3     
   9 C9            -0.9447    -4.1521     1.5274 C.3     
  10 C10            0.1557    -1.9515     1.8771 C.2     
  11 C11            0.1883    -4.7032     2.4022 C.3     
  12 C12            1.4952    -4.0247     1.9857 C.3     
  13 C13            0.1294    -0.4462     1.8109 C.3     
  14 C14            1.3091    -2.5368     1.9267 C.2     
  15 C15            0.0242    -0.0017     0.3507 C.3     
  16 C16            1.1613     2.1370     0.1781 C.2     
  17 C17           -1.1800     2.0986     0.3310 C.2     
  18 C18            1.1089     3.6087     0.1147 C.2     
  19 C19           -0.2237     4.2358     0.1751 C.2     
  20 C20            2.2588     4.3674     0.0039 C.2     
  21 C21            3.3895     6.5226    -0.1250 C.3     
  22 C22            3.0510     7.9795     0.0586 C.ar    
  23 C23            3.1778     8.5784     1.3029 C.ar    
  24 C24            2.6108     8.7357    -1.0109 C.ar    
  25 C25            2.8556     9.9212     1.4248 C.ar    
  26 C26            2.4217    10.6136     0.3099 C.ar    
  27 H27           -1.8249    -2.2236     1.1504 H       
  28 H28           -1.6064    -2.6065     2.8724 H       
  29 H29           -1.8607    -4.7108     1.7193 H       
  30 H30           -0.6717    -4.2402     0.4758 H       
  31 H31           -0.0193    -4.4864     3.4501 H       
  32 H32            0.2723    -5.7802     2.2574 H       
  33 H33            2.2731    -4.2631     2.7110 H       
  34 H34            1.7952    -4.3906     1.0038 H       
  35 H35           -0.7306    -0.0730     2.3672 H       
  36 H36            1.0452    -0.0473     2.2471 H       
  37 H37            2.1926    -1.9157     1.9251 H       
  38 H38           -0.8916    -0.4006    -0.0854 H       
  39 H39            0.8841    -0.3748    -0.2055 H       
  40 H40           -2.1868     3.8288     0.3142 H       
  41 H41            3.2094     3.8850    -0.1697 H       
  42 H42            1.3557     6.1374     0.3477 H       
  43 H43            4.1683     6.2385     0.5826 H       
  44 H44            3.7449     6.3575    -1.1421 H       
  45 H45            3.5191     8.0120     2.1568 H       
  46 H46            2.5091     8.2767    -1.9832 H       
  47 H47            2.9425    10.4200     2.3788 H       
  48 H48            2.1687    11.6600     0.3965 H       
@<TRIPOS>BOND
   1    1   17 2
   2    2   16 2
   3    3   19 2
   4    4   15 1
   5    4   16 am
   6    4   17 am
   7    5   17 am
   8    5   19 am
   9    5   40 1
  10    6   20 1
  11    6   21 1
  12    6   42 1
  13    7   24 ar
  14    7   26 ar
  15    8    9 1
  16    8   10 1
  17    8   27 1
  18    8   28 1
  19    9   11 1
  20    9   29 1
  21    9   30 1
  22   10   13 1
  23   10   14 2
  24   11   12 1
  25   11   31 1
  26   11   32 1
  27   12   14 1
  28   12   33 1
  29   12   34 1
  30   13   15 1
  31   13   35 1
  32   13   36 1
  33   14   37 1
  34   15   38 1
  35   15   39 1
  36   16   18 1
  37   18   19 1
  38   18   20 2
  39   20   41 1
  40   21   22 1
  41   21   43 1
  42   21   44 1
  43   22   23 ar
  44   22   24 ar
  45   23   25 ar
  46   23   45 1
  47   24   46 1
  48   25   26 ar
  49   25   47 1
  50   26   48 1

#	End of record

#	Name: 5825911
#	Creating user name:	landrgr1
#	Creation time:	28. 01. 2015 13:52

#	Modifying user name:	landrgr1
#	Modification time:	28. 01. 2015 13:52

#	Program:	corina 3.48 0006  22.01.2010

@<TRIPOS>MOLECULE
5825911
  37   39    0    0    0
SMALL
NO_CHARGES


@<TRIPOS>ATOM
   1 O1            -0.0122     1.3363     0.0227 O.3     
   2 O2            -2.3006    -2.8556    -0.0035 O.3     
   3 O3            -2.9947     0.3362    -1.0167 O.2     
   4 O4             1.0628     3.2662     0.0359 O.2     
   5 C5             1.2263    -0.6996    -0.0075 C.ar    
   6 C6             0.0022    -0.0111     0.0084 C.ar    
   7 C7            -1.1959    -0.7410     0.0097 C.ar    
   8 C8             2.4724     0.0702    -0.0086 C.2     
   9 C9             1.2456    -2.1007    -0.0216 C.ar    
  10 C10           -1.1487    -2.1421    -0.0050 C.ar    
  11 C11            0.0754    -2.8034    -0.0207 C.ar    
  12 C12            2.3892     1.4261     0.0067 C.2     
  13 C13           -2.4926    -0.0412     0.0267 C.2     
  14 C14            3.8104    -0.6230    -0.0253 C.3     
  15 C15            1.1248     2.0499     0.0222 C.2     
  16 C16           -3.1772     0.2004     1.2978 C.2     
  17 C17           -4.4112     0.7467     1.3064 C.2     
  18 C18           -5.0994     0.9896     2.5842 C.ar    
  19 C19           -6.3785     1.5555     2.5973 C.ar    
  20 C20           -4.4802     0.6504     3.7917 C.ar    
  21 C21           -7.0166     1.7800     3.7987 C.ar    
  22 C22           -5.1316     0.8812     4.9848 C.ar    
  23 C23           -6.3947     1.4473     4.9897 C.ar    
  24 H24            2.1892    -2.6261    -0.0339 H       
  25 H25            0.0998    -3.8831    -0.0320 H       
  26 H26            3.2884     2.0242     0.0063 H       
  27 H27            4.1257    -0.7796    -1.0569 H       
  28 H28            4.5462    -0.0051     0.4896 H       
  29 H29            3.7273    -1.5855     0.4794 H       
  30 H30           -2.6947    -0.0584     2.2287 H       
  31 H31           -4.8937     1.0056     0.3755 H       
  32 H32           -2.6418    -3.0537    -0.8864 H       
  33 H33           -6.8647     1.8163     1.6689 H       
  34 H34           -3.4947     0.2086     3.7895 H       
  35 H35           -8.0042     2.2169     3.8106 H       
  36 H36           -4.6551     0.6196     5.9180 H       
  37 H37           -6.8996     1.6259     5.9275 H       
@<TRIPOS>BOND
   1    1    6 1
   2    1   15 1
   3    2   10 1
   4    2   32 1
   5    3   13 2
   6    4   15 2
   7    5    6 ar
   8    5    8 1
   9    5    9 ar
  10    6    7 ar
  11    7   10 ar
  12    7   13 1
  13    8   12 2
  14    8   14 1
  15    9   11 ar
  16    9   24 1
  17   10   11 ar
  18   11   25 1
  19   12   15 1
  20   12   26 1
  21   13   16 1
  22   14   27 1
  23   14   28 1
  24   14   29 1
  25   16   17 2
  26   16   30 1
  27   17   18 1
  28   17   31 1
  29   18   19 ar
  30   18   20 ar
  31   19   21 ar
  32   19   33 1
  33   20   22 ar
  34   20   34 1
  35   21   23 ar
  36   21   35 1
  37   22   23 ar
  38   22   36 1
  39   23   37 1

#	End of record

#	Name: 5824801
#	Creating user name:	landrgr1
#	Creation time:	28. 01. 2015 13:52

#	Modifying user name:	landrgr1
#	Modification time:	28. 01. 2015 13:52

#	Program:	corina 3.48 0006  22.01.2010

@<TRIPOS>MOLECULE
5824801
  67   71    0    0    0
SMALL
NO_CHARGES


@<TRIPOS>ATOM
   1 O1             2.1466     1.7438     1.5079 O.3     
   2 O2             2.9222   -13.1972    -8.1591 O.3     
   3 O3             5.4512    -2.4444    -8.2674 O.2     
   4 N4             2.7784     1.3236    -1.1962 N.3     
   5 N5             4.2406   -10.7895    -8.7530 N.3     
   6 N6             3.1904    -4.4333    -5.5165 N.3     
   7 C7             3.1122    -2.9667    -5.5703 C.3     
   8 C8             3.3604    -5.0220    -6.8523 C.3     
   9 C9             3.8080     1.7667    -0.2450 C.3     
  10 C10            1.7707     0.4914    -0.5229 C.3     
  11 C11            2.8056   -10.9477    -9.0306 C.3     
  12 C12            4.6380   -11.5955    -7.5895 C.3     
  13 C13            4.4128    -2.4264    -6.1319 C.2     
  14 C14            4.6667    -4.5286    -7.4432 C.2     
  15 C15            3.3490     0.6457    -2.2686 C.ar    
  16 C16            4.5677    -9.4503    -8.5669 C.ar    
  17 C17            3.1444     2.5576     0.8854 C.3     
  18 C18            1.1275     1.2951     0.6104 C.3     
  19 C19            2.5008   -12.4259    -9.2872 C.3     
  20 C20            4.3149   -13.0672    -7.8606 C.3     
  21 C21            4.9014    -3.0676    -7.3748 C.2     
  22 C22            5.0865    -1.4189    -5.5341 C.2     
  23 C23            5.5639    -5.3721    -7.9998 C.2     
  24 C24            4.4841    -0.7028    -4.4021 C.ar    
  25 C25            5.2185    -6.7860    -8.1967 C.ar    
  26 C26            2.0168    -4.9985    -4.8375 C.3     
  27 C27            2.5380     0.1435    -3.2832 C.ar    
  28 C28            5.8842    -9.0890    -8.2919 C.ar    
  29 C29            4.7299     0.4763    -2.3273 C.ar    
  30 C30            3.5788    -8.4744    -8.6619 C.ar    
  31 C31            3.0961    -0.5251    -4.3418 C.ar    
  32 C32            6.2110    -7.7704    -8.1078 C.ar    
  33 C33            5.2965    -0.1910    -3.3823 C.ar    
  34 C34            3.8968    -7.1535    -8.4793 C.ar    
  35 H35            2.2847    -2.6686    -6.2142 H       
  36 H36            2.9563    -2.5722    -4.5662 H       
  37 H37            3.3833    -6.1088    -6.7721 H       
  38 H38            2.5323    -4.7188    -7.4930 H       
  39 H39            4.3185     0.8976     0.1698 H       
  40 H40            4.5292     2.4021    -0.7591 H       
  41 H41            1.0047     0.1958    -1.2398 H       
  42 H42            2.2486    -0.3982    -0.1125 H       
  43 H43            2.2286   -10.6006    -8.1734 H       
  44 H44            2.5385   -10.3628    -9.9108 H       
  45 H45            5.7085   -11.4836    -7.4177 H       
  46 H46            4.0903   -11.2588    -6.7093 H       
  47 H47            2.6795     3.4552     0.4775 H       
  48 H48            3.8962     2.8393     1.6227 H       
  49 H49            0.4207     0.6636     1.1487 H       
  50 H50            0.6040     2.1559     0.1944 H       
  51 H51            3.0363   -12.7589   -10.1763 H       
  52 H52            1.4290   -12.5559    -9.4371 H       
  53 H53            4.5550   -13.6611    -6.9787 H       
  54 H54            4.9031   -13.4189    -8.7082 H       
  55 H55            6.0678    -1.1404    -5.8887 H       
  56 H56            6.5348    -5.0065    -8.2999 H       
  57 H57            1.1133    -4.7163    -5.3782 H       
  58 H58            2.1002    -6.0850    -4.8115 H       
  59 H59            1.9658    -4.6136    -3.8190 H       
  60 H60            1.4678     0.2807    -3.2358 H       
  61 H61            6.6487    -9.8487    -8.2231 H       
  62 H62            5.3556     0.8716    -1.5407 H       
  63 H63            2.5600    -8.7586    -8.8801 H       
  64 H64            2.4660    -0.9178    -5.1262 H       
  65 H65            7.2315    -7.4914    -7.8905 H       
  66 H66            6.3672    -0.3261    -3.4246 H       
  67 H67            3.1284    -6.3977    -8.5484 H       
@<TRIPOS>BOND
   1    1   17 1
   2    1   18 1
   3    2   19 1
   4    2   20 1
   5    3   21 2
   6    4    9 1
   7    4   10 1
   8    4   15 1
   9    5   11 1
  10    5   12 1
  11    5   16 1
  12    6    7 1
  13    6    8 1
  14    6   26 1
  15    7   13 1
  16    7   35 1
  17    7   36 1
  18    8   14 1
  19    8   37 1
  20    8   38 1
  21    9   17 1
  22    9   39 1
  23    9   40 1
  24   10   18 1
  25   10   41 1
  26   10   42 1
  27   11   19 1
  28   11   43 1
  29   11   44 1
  30   12   20 1
  31   12   45 1
  32   12   46 1
  33   13   21 1
  34   13   22 2
  35   14   21 1
  36   14   23 2
  37   15   27 ar
  38   15   29 ar
  39   16   28 ar
  40   16   30 ar
  41   17   47 1
  42   17   48 1
  43   18   49 1
  44   18   50 1
  45   19   51 1
  46   19   52 1
  47   20   53 1
  48   20   54 1
  49   22   24 1
  50   22   55 1
  51   23   25 1
  52   23   56 1
  53   24   31 ar
  54   24   33 ar
  55   25   32 ar
  56   25   34 ar
  57   26   57 1
  58   26   58 1
  59   26   59 1
  60   27   31 ar
  61   27   60 1
  62   28   32 ar
  63   28   61 1
  64   29   33 ar
  65   29   62 1
  66   30   34 ar
  67   30   63 1
  68   31   64 1
  69   32   65 1
  70   33   66 1
  71   34   67 1

#	End of record

#	Name: 5824309
#	Creating user name:	landrgr1
#	Creation time:	28. 01. 2015 13:52

#	Modifying user name:	landrgr1
#	Modification time:	28. 01. 2015 13:52

#	Program:	corina 3.48 0006  22.01.2010

@<TRIPOS>MOLECULE
5824309
  50   53    0    0    0
SMALL
NO_CHARGES


@<TRIPOS>ATOM
   1 O1            -3.2361    -6.2350     0.2184 O.2     
   2 O2             0.4358     1.1953    -1.0097 O.3     
   3 O3             2.4310    -2.9485    -1.6396 O.2     
   4 N4            -3.1599   -10.3402     0.2107 N.pl3   
   5 N5            -3.4346    -9.0841     0.2949 N.2     
   6 N6            -1.3906    -9.2498    -0.3699 N.2     
   7 N7            -1.1258    -6.3233    -0.4684 N.am    
   8 N8            -1.0350    -4.9257    -0.5037 N.pl3   
   9 C9            -1.8700   -10.4671    -0.2088 C.2     
  10 C10           -4.0346   -11.3933     0.5053 C.ar    
  11 C11           -1.1425   -11.7347    -0.4396 C.ar    
  12 C12           -2.3726    -8.3896    -0.0538 C.2     
  13 C13           -3.5917   -12.4777     1.2513 C.ar    
  14 C14           -5.3484   -11.3528     0.0570 C.ar    
  15 C15           -1.8303   -12.8678    -0.8746 C.ar    
  16 C16            0.2349   -11.8002    -0.2286 C.ar    
  17 C17           -2.2768    -6.9145    -0.0911 C.2     
  18 C18           -4.4568   -13.5148     1.5402 C.ar    
  19 C19           -6.2086   -12.3930     0.3492 C.ar    
  20 C20           -1.1462   -14.0467    -1.0885 C.ar    
  21 C21            0.9076   -12.9851    -0.4461 C.ar    
  22 C22           -5.7627   -13.4744     1.0870 C.ar    
  23 C23            0.2189   -14.1068    -0.8720 C.ar    
  24 C24            0.2023    -2.9463    -0.9149 C.2     
  25 C25            0.1120    -4.3365    -0.8797 C.2     
  26 C26            1.4507    -2.2875    -1.3241 C.2     
  27 C27           -0.9066    -2.1437    -0.5629 C.2     
  28 C28            0.3815    -0.1594    -0.9858 C.2     
  29 C29            1.4960    -0.8870    -1.3452 C.2     
  30 C30           -0.8061    -0.7916    -0.6022 C.2     
  31 C31            1.6715     1.7879    -1.4144 C.3     
  32 H32           -2.5717   -12.5103     1.6049 H       
  33 H33           -5.6972   -10.5086    -0.5192 H       
  34 H34           -2.8961   -12.8223    -1.0433 H       
  35 H35            0.7737   -10.9252     0.1039 H       
  36 H36           -4.1130   -14.3584     2.1202 H       
  37 H37           -7.2304   -12.3621     0.0009 H       
  38 H38           -1.6775   -14.9246    -1.4253 H       
  39 H39            1.9740   -13.0371    -0.2831 H       
  40 H40           -6.4371   -14.2869     1.3137 H       
  41 H41            0.7498   -15.0321    -1.0401 H       
  42 H42           -0.3604    -6.8655    -0.7153 H       
  43 H43            0.9643    -4.9402    -1.1546 H       
  44 H44           -1.8005    -4.3835    -0.2568 H       
  45 H45           -1.8350    -2.6074    -0.2635 H       
  46 H46            2.4017    -0.3790    -1.6418 H       
  47 H47           -1.6612    -0.1901    -0.3311 H       
  48 H48            2.4644     1.4749    -0.7351 H       
  49 H49            1.9136     1.4672    -2.4277 H       
  50 H50            1.5792     2.8737    -1.3893 H       
@<TRIPOS>BOND
   1    1   17 2
   2    2   28 1
   3    2   31 1
   4    3   26 2
   5    4    5 1
   6    4    9 1
   7    4   10 1
   8    5   12 2
   9    6    9 2
  10    6   12 1
  11    7    8 1
  12    7   17 am
  13    7   42 1
  14    8   25 1
  15    8   44 1
  16    9   11 1
  17   10   13 ar
  18   10   14 ar
  19   11   15 ar
  20   11   16 ar
  21   12   17 1
  22   13   18 ar
  23   13   32 1
  24   14   19 ar
  25   14   33 1
  26   15   20 ar
  27   15   34 1
  28   16   21 ar
  29   16   35 1
  30   18   22 ar
  31   18   36 1
  32   19   22 ar
  33   19   37 1
  34   20   23 ar
  35   20   38 1
  36   21   23 ar
  37   21   39 1
  38   22   40 1
  39   23   41 1
  40   24   25 2
  41   24   26 1
  42   24   27 1
  43   25   43 1
  44   26   29 1
  45   27   30 2
  46   27   45 1
  47   28   29 2
  48   28   30 1
  49   29   46 1
  50   30   47 1
  51   31   48 1
  52   31   49 1
  53   31   50 1

#	End of record

#	Name: 5823126
#	Creating user name:	landrgr1
#	Creation time:	28. 01. 2015 13:52

#	Modifying user name:	landrgr1
#	Modification time:	28. 01. 2015 13:52

#	Program:	corina 3.48 0006  22.01.2010

@<TRIPOS>MOLECULE
5823126
  34   35    0    0    0
SMALL
NO_CHARGES


@<TRIPOS>ATOM
   1 Cl1           -1.2928   -10.7493    -0.0408 Cl      
   2 O2            -0.0163     1.3518     0.0095 O.3     
   3 O3             2.3091    -2.6656    -0.0334 O.2     
   4 N4            -1.2200    -4.8489    -0.0104 N.pl3   
   5 C5            -0.0307    -2.7974    -0.0117 C.2     
   6 C6            -1.2372    -6.2462    -0.0172 C.ar    
   7 C7            -0.0479    -4.1912    -0.0185 C.2     
   8 C8             0.0021    -0.0041     0.0020 C.2     
   9 C9             1.2432    -2.0645    -0.0204 C.2     
  10 C10           -1.2379    -2.0628    -0.0022 C.2     
  11 C11            1.2127    -0.6637    -0.0131 C.2     
  12 C12           -1.2077    -0.7065     0.0044 C.2     
  13 C13           -2.4481    -6.9273    -0.0089 C.ar    
  14 C14           -0.0436    -6.9568    -0.0382 C.ar    
  15 C15           -2.4621    -8.3081    -0.0161 C.ar    
  16 C16           -0.0637    -8.3375    -0.0454 C.ar    
  17 C17           -1.2714    -9.0134    -0.0317 C.ar    
  18 C18            1.2480     2.0178     0.0010 C.3     
  19 C19            1.0303     3.5090     0.0111 C.2     
  20 C20            1.7371     4.2687     0.8107 C.2     
  21 H21            0.8807    -4.7426    -0.0303 H       
  22 H22           -2.1852    -2.5814    -0.0005 H       
  23 H23           -2.0540    -4.3536     0.0002 H       
  24 H24            2.1353    -0.1021    -0.0150 H       
  25 H25           -2.1376    -0.1573     0.0164 H       
  26 H26           -3.3775    -6.3774     0.0036 H       
  27 H27            0.8991    -6.4299    -0.0492 H       
  28 H28           -3.4030    -8.8381    -0.0093 H       
  29 H29            0.8638    -8.8905    -0.0620 H       
  30 H30            1.8174     1.7278     0.8840 H       
  31 H31            1.8004     1.7373    -0.8958 H       
  32 H32            0.2916     3.9513    -0.6409 H       
  33 H33            2.4758     3.8264     1.4626 H       
  34 H34            1.5811     5.3373     0.8179 H       
@<TRIPOS>BOND
   1    1   17 1
   2    2    8 1
   3    2   18 1
   4    3    9 2
   5    4    6 1
   6    4    7 1
   7    4   23 1
   8    5    7 2
   9    5    9 1
  10    5   10 1
  11    6   13 ar
  12    6   14 ar
  13    7   21 1
  14    8   11 2
  15    8   12 1
  16    9   11 1
  17   10   12 2
  18   10   22 1
  19   11   24 1
  20   12   25 1
  21   13   15 ar
  22   13   26 1
  23   14   16 ar
  24   14   27 1
  25   15   17 ar
  26   15   28 1
  27   16   17 ar
  28   16   29 1
  29   18   19 1
  30   18   30 1
  31   18   31 1
  32   19   20 2
  33   19   32 1
  34   20   33 1
  35   20   34 1

#	End of record

#	Name: 5817124
#	Creating user name:	landrgr1
#	Creation time:	28. 01. 2015 13:52

#	Modifying user name:	landrgr1
#	Modification time:	28. 01. 2015 13:52

#	Program:	corina 3.48 0006  22.01.2010

@<TRIPOS>MOLECULE
5817124
  43   46    0    0    0
SMALL
NO_CHARGES


@<TRIPOS>ATOM
   1 S1             0.2658     1.5238    -0.4515 S.o2    
   2 S2            -0.2539     3.4790     1.9314 S.3     
   3 O3             0.3230     0.1046    -0.4959 O.2     
   4 O4             1.4110     2.3526    -0.5957 O.2     
   5 O5            -3.1531     1.4320    -2.2932 O.2     
   6 O6            -7.9167     0.0991    -3.9182 O.2     
   7 N7            -0.7978     1.9861    -1.6335 N.am    
   8 N8            -5.6672     1.9279    -3.0108 N.pl3   
   9 N9            -4.7244     2.9324    -2.7557 N.am    
  10 N10           -9.0059     2.0526    -4.2722 N.2     
  11 C11           -1.1665     3.3198    -1.7530 C.ar    
  12 C12           -2.4761     3.6590    -2.1277 C.ar    
  13 C13           -7.4227     3.5496    -3.6262 C.2     
  14 C14           -6.8820     2.2512    -3.4608 C.2     
  15 C15           -8.7388     3.3823    -4.1303 C.2     
  16 C16           -0.4608     1.9442     1.0976 C.2     
  17 C17           -3.4682     2.6019    -2.3962 C.2     
  18 C18           -0.2427     4.3251    -1.4968 C.ar    
  19 C19           -2.8335     5.0044    -2.2442 C.ar    
  20 C20           -6.9177     4.8349    -3.3954 C.2     
  21 C21           -7.9739     1.3153    -3.9034 C.2     
  22 C22           -9.5094     4.5128    -4.3879 C.2     
  23 C23           -0.6116     5.6496    -1.6158 C.ar    
  24 C24           -1.9018     5.9876    -1.9915 C.ar    
  25 C25           -7.7060     5.9374    -3.6607 C.2     
  26 C26           -1.2527     1.1475     1.8171 C.2     
  27 C27           -8.9913     5.7762    -4.1529 C.2     
  28 C28           -1.7074     1.6950     3.0043 C.2     
  29 C29           -1.2849     2.9363     3.2491 C.2     
  30 H30           -1.1634     1.3254    -2.2424 H       
  31 H31            0.7650     4.0700    -1.2038 H       
  32 H32           -5.4374     0.9976    -2.8604 H       
  33 H33           -3.8390     5.2736    -2.5324 H       
  34 H34           -5.9165     4.9635    -3.0115 H       
  35 H35           -4.9758     3.8656    -2.8378 H       
  36 H36          -10.5130     4.4048    -4.7721 H       
  37 H37            0.1101     6.4276    -1.4152 H       
  38 H38           -2.1798     7.0272    -2.0824 H       
  39 H39           -7.3190     6.9300    -3.4832 H       
  40 H40           -1.5191     0.1510     1.4973 H       
  41 H41           -9.5972     6.6469    -4.3561 H       
  42 H42           -2.3555     1.1580     3.6810 H       
  43 H43           -1.5369     3.5189     4.1228 H       
@<TRIPOS>BOND
   1    1    3 2
   2    1    4 2
   3    1    7 am
   4    1   16 1
   5    2   16 1
   6    2   29 1
   7    5   17 2
   8    6   21 2
   9    7   11 1
  10    7   30 1
  11    8    9 1
  12    8   14 1
  13    8   32 1
  14    9   17 am
  15    9   35 1
  16   10   15 2
  17   10   21 1
  18   11   12 ar
  19   11   18 ar
  20   12   17 1
  21   12   19 ar
  22   13   14 2
  23   13   15 1
  24   13   20 1
  25   14   21 1
  26   15   22 1
  27   16   26 2
  28   18   23 ar
  29   18   31 1
  30   19   24 ar
  31   19   33 1
  32   20   25 2
  33   20   34 1
  34   22   27 2
  35   22   36 1
  36   23   24 ar
  37   23   37 1
  38   24   38 1
  39   25   27 1
  40   25   39 1
  41   26   28 1
  42   26   40 1
  43   27   41 1
  44   28   29 2
  45   28   42 1
  46   29   43 1

#	End of record

#	Name: 5817082
#	Creating user name:	landrgr1
#	Creation time:	28. 01. 2015 13:52

#	Modifying user name:	landrgr1
#	Modification time:	28. 01. 2015 13:52

#	Program:	corina 3.48 0006  22.01.2010

@<TRIPOS>MOLECULE
5817082
  39   41    0    0    0
SMALL
NO_CHARGES


@<TRIPOS>ATOM
   1 S1            -0.0218     1.7568     0.0117 S.3     
   2 S2            -5.7675    -3.1329     0.0415 S.3     
   3 F3             7.6345    -0.7734    -0.0778 F       
   4 F4            -8.1497    -3.2415    -1.0779 F       
   5 F5            -7.4978    -5.1193     0.0481 F       
   6 F6            -8.1271    -3.2535     1.2065 F       
   7 N7            -3.5398    -1.1262     0.0306 N.pl3   
   8 N8             1.2359    -0.4184    -0.0120 N.2     
   9 N9            -0.9169    -3.4271    -0.0063 N.1     
  10 C10            3.6237     0.1693    -0.0321 C.ar    
  11 C11           -4.8190    -0.5596     0.0458 C.ar    
  12 C12            2.1797     0.5087    -0.0160 C.2     
  13 C13           -5.9484    -1.3803     0.0526 C.ar    
  14 C14            0.0021    -0.0041     0.0020 C.2     
  15 C15           -4.9689     0.8189     0.0599 C.ar    
  16 C16           -1.1901    -0.8737     0.0092 C.2     
  17 C17            4.0282    -1.1645    -0.0431 C.ar    
  18 C18            4.5800     1.1832    -0.0421 C.ar    
  19 C19            1.7401     1.7815    -0.0050 C.2     
  20 C20           -2.4366    -0.3215     0.0240 C.2     
  21 C21           -7.2136    -0.8114     0.0676 C.ar    
  22 C22           -6.2341     1.3767     0.0753 C.ar    
  23 C23           -7.3528     0.5641     0.0758 C.ar    
  24 C24            5.3724    -1.4755    -0.0585 C.ar    
  25 C25            5.9220     0.8628    -0.0575 C.ar    
  26 C26            6.3195    -0.4643    -0.0631 C.ar    
  27 C27           -7.4837    -3.7204     0.0554 C.3     
  28 C28           -1.0377    -2.2975     0.0006 C.1     
  29 H29           -3.4366    -2.0907     0.0248 H       
  30 H30           -4.0975     1.4569     0.0592 H       
  31 H31            3.2905    -1.9533    -0.0391 H       
  32 H32            4.2710     2.2180    -0.0382 H       
  33 H33            2.3606     2.6654    -0.0065 H       
  34 H34           -2.5514     0.7524     0.0305 H       
  35 H35           -8.0897    -1.4429     0.0726 H       
  36 H36           -6.3489     2.4505     0.0870 H       
  37 H37           -8.3386     1.0053     0.0872 H       
  38 H38            5.6867    -2.5087    -0.0666 H       
  39 H39            6.6636     1.6478    -0.0653 H       
@<TRIPOS>BOND
   1    1   14 1
   2    1   19 1
   3    2   13 1
   4    2   27 1
   5    3   26 1
   6    4   27 1
   7    5   27 1
   8    6   27 1
   9    7   11 1
  10    7   20 1
  11    7   29 1
  12    8   12 1
  13    8   14 2
  14    9   28 3
  15   10   12 1
  16   10   17 ar
  17   10   18 ar
  18   11   13 ar
  19   11   15 ar
  20   12   19 2
  21   13   21 ar
  22   14   16 1
  23   15   22 ar
  24   15   30 1
  25   16   20 2
  26   16   28 1
  27   17   24 ar
  28   17   31 1
  29   18   25 ar
  30   18   32 1
  31   19   33 1
  32   20   34 1
  33   21   23 ar
  34   21   35 1
  35   22   23 ar
  36   22   36 1
  37   23   37 1
  38   24   26 ar
  39   24   38 1
  40   25   26 ar
  41   25   39 1

#	End of record

#	Name: 5807442
#	Creating user name:	landrgr1
#	Creation time:	28. 01. 2015 13:52

#	Modifying user name:	landrgr1
#	Modification time:	28. 01. 2015 13:52

#	Program:	corina 3.48 0006  22.01.2010

@<TRIPOS>MOLECULE
5807442
  47   48    0    0    0
SMALL
NO_CHARGES


@<TRIPOS>ATOM
   1 O1            -1.0881     2.8335     3.6738 O.3     
   2 O2             3.1422     6.4218     1.7380 O.2     
   3 N3             0.3332     8.4586    -0.4851 N.pl3   
   4 N4            -1.1639     5.3685     0.2066 N.1     
   5 C5            -2.1863     3.2691     9.1809 C.3     
   6 C6            -1.8924     3.1524     7.7074 C.ar    
   7 C7            -1.3546     2.2406     9.9498 C.3     
   8 C8            -1.8289     4.6768     9.6623 C.3     
   9 C9            -2.9108     2.8497     6.8224 C.ar    
  10 C10           -0.6061     3.3543     7.2421 C.ar    
  11 C11           -1.3531     2.9386     5.0025 C.ar    
  12 C12           -2.6441     2.7421     5.4713 C.ar    
  13 C13           -0.3341     3.2479     5.8920 C.ar    
  14 C14            0.1734     3.1102     3.2510 C.ar    
  15 C15            1.7475     4.6073     2.2190 C.ar    
  16 C16            0.4511     4.3275     2.6515 C.ar    
  17 C17            1.1846     2.1748     3.4253 C.ar    
  18 C18            2.7566     3.6583     2.3939 C.ar    
  19 C19            2.4702     2.4511     2.9974 C.ar    
  20 C20            2.0521     5.9049     1.5778 C.2     
  21 C21            1.0406     6.5686     0.7491 C.2     
  22 C22            1.2735     7.8389     0.2605 C.2     
  23 C23           -0.9533     7.8034    -0.7341 C.3     
  24 C24            0.5997     9.7860    -1.0449 C.3     
  25 C25           -0.1887     5.8994     0.4466 C.1     
  26 H26           -3.2460     3.0835     9.3558 H       
  27 H27           -1.6092     1.2378     9.6069 H       
  28 H28           -0.2949     2.4263     9.7749 H       
  29 H29           -1.5671     2.3250    11.0156 H       
  30 H30           -2.4214     5.4095     9.1145 H       
  31 H31           -2.0414     4.7612    10.7280 H       
  32 H32           -0.7692     4.8624     9.4873 H       
  33 H33           -3.9155     2.6965     7.1880 H       
  34 H34            0.1866     3.5951     7.9349 H       
  35 H35           -3.4398     2.5050     4.7806 H       
  36 H36            0.6710     3.4050     5.5292 H       
  37 H37           -0.3336     5.0577     2.5190 H       
  38 H38            0.9663     1.2281     3.8970 H       
  39 H39            3.7616     3.8705     2.0602 H       
  40 H40            3.2527     1.7198     3.1363 H       
  41 H41            2.2077     8.3370     0.4745 H       
  42 H42           -1.4122     7.5310     0.2163 H       
  43 H43           -1.6106     8.4862    -1.2725 H       
  44 H44           -0.7942     6.9056    -1.3313 H       
  45 H45            1.4666     9.7352    -1.7036 H       
  46 H46           -0.2684    10.1221    -1.6121 H       
  47 H47            0.7989    10.4883    -0.2355 H       
@<TRIPOS>BOND
   1    1   11 1
   2    1   14 1
   3    2   20 2
   4    3   22 1
   5    3   23 1
   6    3   24 1
   7    4   25 3
   8    5    6 1
   9    5    7 1
  10    5    8 1
  11    5   26 1
  12    6    9 ar
  13    6   10 ar
  14    7   27 1
  15    7   28 1
  16    7   29 1
  17    8   30 1
  18    8   31 1
  19    8   32 1
  20    9   12 ar
  21    9   33 1
  22   10   13 ar
  23   10   34 1
  24   11   12 ar
  25   11   13 ar
  26   12   35 1
  27   13   36 1
  28   14   16 ar
  29   14   17 ar
  30   15   16 ar
  31   15   18 ar
  32   15   20 1
  33   16   37 1
  34   17   19 ar
  35   17   38 1
  36   18   19 ar
  37   18   39 1
  38   19   40 1
  39   20   21 1
  40   21   22 2
  41   21   25 1
  42   22   41 1
  43   23   42 1
  44   23   43 1
  45   23   44 1
  46   24   45 1
  47   24   46 1
  48   24   47 1

#	End of record

#	Name: 5803692
#	Creating user name:	landrgr1
#	Creation time:	28. 01. 2015 13:52

#	Modifying user name:	landrgr1
#	Modification time:	28. 01. 2015 13:52

#	Program:	corina 3.48 0006  22.01.2010

@<TRIPOS>MOLECULE
5803692
  35   37    0    0    0
SMALL
NO_CHARGES


@<TRIPOS>ATOM
   1 O1             1.0184    -5.0069    -0.5271 O.2     
   2 O2             0.5138     1.2536     0.2236 O.3     
   3 N3             2.0062    -8.1190     2.2044 N.ar    
   4 C4            -2.3104    -2.6893     0.4245 C.3     
   5 C5            -2.4402    -4.0477    -0.2589 C.3     
   6 C6            -0.9520    -2.0794     0.2167 C.ar    
   7 C7            -1.2482    -4.9014     0.1330 C.2     
   8 C8             0.1808    -2.8437    -0.0607 C.ar    
   9 C9             0.0748    -4.3183    -0.1849 C.2     
  10 C10           -0.8277    -0.7044     0.3076 C.ar    
  11 C11            1.4255    -2.2312    -0.2311 C.ar    
  12 C12           -1.3843    -6.1038     0.7280 C.2     
  13 C13            0.4073    -0.0962     0.1327 C.ar    
  14 C14            1.5364    -0.8625    -0.1347 C.ar    
  15 C15           -0.1981    -6.8088     1.2442 C.ar    
  16 C16            0.9017    -6.0983     1.7450 C.ar    
  17 C17           -0.1371    -8.2092     1.2491 C.ar    
  18 C18            1.9912    -6.8003     2.2187 C.ar    
  19 C19            0.9939    -8.8270     1.7426 C.ar    
  20 C20            1.8135     1.8162     0.0332 C.3     
  21 H21           -3.0664    -2.0160     0.0206 H       
  22 H22           -2.4833    -2.8128     1.4936 H       
  23 H23           -3.3607    -4.5337     0.0646 H       
  24 H24           -2.4545    -3.9134    -1.3405 H       
  25 H25           -1.6982    -0.1000     0.5159 H       
  26 H26            2.2994    -2.8311    -0.4382 H       
  27 H27           -2.3629    -6.5500     0.8262 H       
  28 H28            2.4965    -0.3858    -0.2662 H       
  29 H29            0.8966    -5.0184     1.7595 H       
  30 H30           -0.9621    -8.7955     0.8722 H       
  31 H31            2.8434    -6.2624     2.6069 H       
  32 H32            1.0509    -9.9055     1.7504 H       
  33 H33            1.7582     2.9003     0.1318 H       
  34 H34            2.4956     1.4174     0.7841 H       
  35 H35            2.1782     1.5599    -0.9615 H       
@<TRIPOS>BOND
   1    1    9 2
   2    2   13 1
   3    2   20 1
   4    3   18 ar
   5    3   19 ar
   6    4    5 1
   7    4    6 1
   8    4   21 1
   9    4   22 1
  10    5    7 1
  11    5   23 1
  12    5   24 1
  13    6    8 ar
  14    6   10 ar
  15    7    9 1
  16    7   12 2
  17    8    9 1
  18    8   11 ar
  19   10   13 ar
  20   10   25 1
  21   11   14 ar
  22   11   26 1
  23   12   15 1
  24   12   27 1
  25   13   14 ar
  26   14   28 1
  27   15   16 ar
  28   15   17 ar
  29   16   18 ar
  30   16   29 1
  31   17   19 ar
  32   17   30 1
  33   18   31 1
  34   19   32 1
  35   20   33 1
  36   20   34 1
  37   20   35 1

#	End of record

#	Name: 5794107
#	Creating user name:	landrgr1
#	Creation time:	28. 01. 2015 13:52

#	Modifying user name:	landrgr1
#	Modification time:	28. 01. 2015 13:52

#	Program:	corina 3.48 0006  22.01.2010

@<TRIPOS>MOLECULE
5794107
  31   32    0    0    0
SMALL
NO_CHARGES


@<TRIPOS>ATOM
   1 O1             6.2464     0.8623    -0.0530 O.2     
   2 N2            -0.0169     1.3949     0.0097 N.pl3   
   3 N3             0.0021    -0.0041     0.0020 N.2     
   4 C4             2.0774     0.7293    -0.0139 C.2     
   5 C5             1.2408    -0.4118    -0.0120 C.2     
   6 C6             1.2510     1.8395    -0.0000 C.2     
   7 C7             3.5457     0.7348    -0.0279 C.2     
   8 C8             1.7006    -1.8469    -0.0241 C.3     
   9 C9            -1.2176     2.2342     0.0202 C.3     
  10 C10            4.2181     1.9094    -0.0280 C.2     
  11 C11            6.3688     3.1986    -0.0416 C.ar    
  12 C12            5.6337     1.9146    -0.0415 C.2     
  13 C13            7.7645     3.2073    -0.0549 C.ar    
  14 C14            5.6694     4.4066    -0.0342 C.ar    
  15 C15            8.4438     4.4079    -0.0554 C.ar    
  16 C16            6.3608     5.6003    -0.0349 C.ar    
  17 C17            7.7445     5.6019    -0.0428 C.ar    
  18 H18            1.5668     2.8722     0.0020 H       
  19 H19            4.0891    -0.1985    -0.0381 H       
  20 H20            1.8021    -2.1872    -1.0546 H       
  21 H21            2.6637    -1.9241     0.4805 H       
  22 H22            0.9686    -2.4673     0.4930 H       
  23 H23           -1.5101     2.4371     1.0504 H       
  24 H24           -1.0082     3.1744    -0.4900 H       
  25 H25           -2.0279     1.7155    -0.4921 H       
  26 H26            3.6747     2.8426    -0.0178 H       
  27 H27            8.3114     2.2760    -0.0643 H       
  28 H28            4.5895     4.4067    -0.0285 H       
  29 H29            9.5237     4.4160    -0.0653 H       
  30 H30            5.8210     6.5357    -0.0296 H       
  31 H31            8.2811     6.5392    -0.0432 H       
@<TRIPOS>BOND
   1    1   12 2
   2    2    3 1
   3    2    6 1
   4    2    9 1
   5    3    5 2
   6    4    5 1
   7    4    6 2
   8    4    7 1
   9    5    8 1
  10    6   18 1
  11    7   10 2
  12    7   19 1
  13    8   20 1
  14    8   21 1
  15    8   22 1
  16    9   23 1
  17    9   24 1
  18    9   25 1
  19   10   12 1
  20   10   26 1
  21   11   12 1
  22   11   13 ar
  23   11   14 ar
  24   13   15 ar
  25   13   27 1
  26   14   16 ar
  27   14   28 1
  28   15   17 ar
  29   15   29 1
  30   16   17 ar
  31   16   30 1
  32   17   31 1

#	End of record

#	Name: 5791891
#	Creating user name:	landrgr1
#	Creation time:	28. 01. 2015 13:52

#	Modifying user name:	landrgr1
#	Modification time:	28. 01. 2015 13:52

#	Program:	corina 3.48 0006  22.01.2010

@<TRIPOS>MOLECULE
5791891
  47   49    0    0    0
SMALL
NO_CHARGES


@<TRIPOS>ATOM
   1 O1            -0.3863     1.1898     0.2097 O.3     
   2 O2             0.2961    -4.4376     5.9396 O.2     
   3 O3            -1.1078    -0.9809     0.4244 O.2     
   4 N4             1.2638    -3.6232     1.3284 N.3     
   5 N5             0.8966    -4.7885     3.8329 N.am    
   6 N6             3.1420    -1.6899    -0.0053 N.pl3   
   7 N7             1.7442     0.8314    -0.0705 N.2     
   8 C8             0.4221    -4.8219     1.4418 C.3     
   9 C9             1.1173    -2.7560     2.5050 C.3     
  10 C10            0.8829    -5.6537     2.6435 C.3     
  11 C11            1.6065    -3.5031     3.7502 C.3     
  12 C12            0.9680    -2.8874     0.0919 C.3     
  13 C13            1.7851    -1.6217     0.0529 C.2     
  14 C14            0.2746    -5.1635     4.9683 C.2     
  15 C15            1.1565    -0.3939     0.0763 C.2     
  16 C16            3.9525    -1.0644     1.0425 C.3     
  17 C17            3.7933    -2.3889    -1.1159 C.3     
  18 C18           -0.2334    -0.1495     0.2585 C.2     
  19 C19            0.8236     1.7512     0.0105 C.2     
  20 C20            1.0710     3.2036    -0.1012 C.ar    
  21 C21            0.0100     4.1054     0.0001 C.ar    
  22 C22            2.3675     3.6806    -0.3028 C.ar    
  23 C23            0.2479     5.4601    -0.1051 C.ar    
  24 C24            2.5914     5.0379    -0.4062 C.ar    
  25 C25            1.5346     5.9258    -0.3106 C.ar    
  26 H26           -0.6171    -4.5246     1.5823 H       
  27 H27            0.5111    -5.4162     0.5325 H       
  28 H28            1.7105    -1.8520     2.3667 H       
  29 H29            0.0684    -2.4875     2.6306 H       
  30 H30            1.8858    -6.0388     2.4593 H       
  31 H31            0.1927    -6.4824     2.8015 H       
  32 H32            1.3948    -2.9100     4.6399 H       
  33 H33            2.6790    -3.6815     3.6724 H       
  34 H34            1.2179    -3.5078    -0.7687 H       
  35 H35           -0.0923    -2.6364     0.0632 H       
  36 H36           -0.2428    -6.1104     5.0131 H       
  37 H37            3.2979    -0.6456     1.8068 H       
  38 H38            4.6046    -1.8127     1.4929 H       
  39 H39            4.5581    -0.2694     0.6074 H       
  40 H40            3.8947    -1.7103    -1.9629 H       
  41 H41            4.7804    -2.7288    -0.8024 H       
  42 H42            3.1894    -3.2477    -1.4088 H       
  43 H43           -0.9948     3.7432     0.1601 H       
  44 H44            3.1934     2.9886    -0.3772 H       
  45 H45           -0.5719     6.1588    -0.0273 H       
  46 H46            3.5939     5.4083    -0.5617 H       
  47 H47            1.7153     6.9874    -0.3926 H       
@<TRIPOS>BOND
   1    1   18 1
   2    1   19 1
   3    2   14 2
   4    3   18 2
   5    4    8 1
   6    4    9 1
   7    4   12 1
   8    5   10 1
   9    5   11 1
  10    5   14 am
  11    6   13 1
  12    6   16 1
  13    6   17 1
  14    7   15 1
  15    7   19 2
  16    8   10 1
  17    8   26 1
  18    8   27 1
  19    9   11 1
  20    9   28 1
  21    9   29 1
  22   10   30 1
  23   10   31 1
  24   11   32 1
  25   11   33 1
  26   12   13 1
  27   12   34 1
  28   12   35 1
  29   13   15 2
  30   14   36 1
  31   15   18 1
  32   16   37 1
  33   16   38 1
  34   16   39 1
  35   17   40 1
  36   17   41 1
  37   17   42 1
  38   19   20 1
  39   20   21 ar
  40   20   22 ar
  41   21   23 ar
  42   21   43 1
  43   22   24 ar
  44   22   44 1
  45   23   25 ar
  46   23   45 1
  47   24   25 ar
  48   24   46 1
  49   25   47 1

#	End of record

#	Name: 5786987
#	Creating user name:	landrgr1
#	Creation time:	28. 01. 2015 13:52

#	Modifying user name:	landrgr1
#	Modification time:	28. 01. 2015 13:52

#	Program:	corina 3.48 0006  22.01.2010

@<TRIPOS>MOLECULE
5786987
  52   56    0    0    0
SMALL
NO_CHARGES


@<TRIPOS>ATOM
   1 O1            -2.1962     2.0381     1.3511 O.2     
   2 O2            -5.8814     6.5050     0.0167 O.2     
   3 N3             0.0409     1.6527     1.1113 N.am    
   4 N4            -3.8068     5.6587     0.0681 N.am    
   5 N5            -3.4759     3.3469     0.4028 N.2     
   6 C6             0.0947     0.2969     1.6637 C.3     
   7 C7             1.1441     2.3434     0.6213 C.ar    
   8 C8             0.7381     3.6076     0.1709 C.ar    
   9 C9            -0.7202     3.6874     0.4062 C.2     
  10 C10           -1.0818     2.3843     1.0085 C.2     
  11 C11           -0.3872     0.3182     3.1156 C.3     
  12 C12           -0.8069    -0.6254     0.8406 C.3     
  13 C13           -1.5501     4.7307     0.1256 C.2     
  14 C14            2.4845     1.9898     0.5214 C.ar    
  15 C15            1.6658     4.4936    -0.3679 C.ar    
  16 C16           -3.0025     4.5533     0.2049 C.2     
  17 C17            3.3976     2.8764    -0.0149 C.ar    
  18 C18            2.9930     4.1239    -0.4586 C.ar    
  19 C19           -5.1531     5.5370     0.1352 C.2     
  20 C20           -5.7030     4.1907     0.3573 C.ar    
  21 C21           -4.7975     3.1106     0.4861 C.ar    
  22 C22           -3.2309     6.9177    -0.1359 C.ar    
  23 C23           -7.0739     3.9640     0.4405 C.ar    
  24 C24           -5.2966     1.8207     0.6979 C.ar    
  25 C25           -3.4763     7.6128    -1.3131 C.ar    
  26 C26           -2.4172     7.4774     0.8408 C.ar    
  27 C27           -7.5407     2.6831     0.6493 C.ar    
  28 C28           -6.6563     1.6204     0.7777 C.ar    
  29 C29           -2.9063     8.8551    -1.5113 C.ar    
  30 C30           -1.8504     8.7200     0.6364 C.ar    
  31 C31           -2.0921     9.4070    -0.5392 C.ar    
  32 H32            1.1204    -0.0701     1.6267 H       
  33 H33           -1.4129     0.6852     3.1526 H       
  34 H34           -0.3472    -0.6905     3.5266 H       
  35 H35            0.2551     0.9753     3.7020 H       
  36 H36           -1.8326    -0.2584     0.8776 H       
  37 H37           -0.4635    -0.6406    -0.1938 H       
  38 H38           -0.7668    -1.6341     1.2516 H       
  39 H39           -1.1376     5.6884    -0.1552 H       
  40 H40            2.8129     1.0197     0.8643 H       
  41 H41            1.3490     5.4664    -0.7140 H       
  42 H42            4.4374     2.5939    -0.0886 H       
  43 H43            3.7162     4.8084    -0.8765 H       
  44 H44           -7.7676     4.7859     0.3427 H       
  45 H45           -4.6185     0.9862     0.7979 H       
  46 H46           -4.1118     7.1822    -2.0727 H       
  47 H47           -2.2283     6.9415     1.7593 H       
  48 H48           -8.6040     2.5052     0.7146 H       
  49 H49           -7.0398     0.6241     0.9412 H       
  50 H50           -3.0965     9.3960    -2.4265 H       
  51 H51           -1.2179     9.1559     1.3956 H       
  52 H52           -1.6474    10.3785    -0.6968 H       
@<TRIPOS>BOND
   1    1   10 2
   2    2   19 2
   3    3    6 1
   4    3    7 1
   5    3   10 am
   6    4   16 1
   7    4   19 am
   8    4   22 1
   9    5   16 2
  10    5   21 1
  11    6   11 1
  12    6   12 1
  13    6   32 1
  14    7    8 ar
  15    7   14 ar
  16    8    9 1
  17    8   15 ar
  18    9   10 1
  19    9   13 2
  20   11   33 1
  21   11   34 1
  22   11   35 1
  23   12   36 1
  24   12   37 1
  25   12   38 1
  26   13   16 1
  27   13   39 1
  28   14   17 ar
  29   14   40 1
  30   15   18 ar
  31   15   41 1
  32   17   18 ar
  33   17   42 1
  34   18   43 1
  35   19   20 1
  36   20   21 ar
  37   20   23 ar
  38   21   24 ar
  39   22   25 ar
  40   22   26 ar
  41   23   27 ar
  42   23   44 1
  43   24   28 ar
  44   24   45 1
  45   25   29 ar
  46   25   46 1
  47   26   30 ar
  48   26   47 1
  49   27   28 ar
  50   27   48 1
  51   28   49 1
  52   29   31 ar
  53   29   50 1
  54   30   31 ar
  55   30   51 1
  56   31   52 1

#	End of record

#	Name: 5775976
#	Creating user name:	landrgr1
#	Creation time:	28. 01. 2015 13:52

#	Modifying user name:	landrgr1
#	Modification time:	28. 01. 2015 13:52

#	Program:	corina 3.48 0006  22.01.2010

@<TRIPOS>MOLECULE
5775976
  37   38    0    0    0
SMALL
NO_CHARGES


@<TRIPOS>ATOM
   1 Cl1           -5.8948    -2.1304     2.8157 Cl      
   2 Cl2           -7.8166    -2.8083     0.4217 Cl      
   3 Cl3           -6.2192    -0.9914    -1.3638 Cl      
   4 O4            -0.0491     0.8135    -1.0064 O.3     
   5 O5            -3.1367     1.2087     1.5000 O.2     
   6 O6            -5.2395     1.0550     2.3708 O.2     
   7 N7            -2.3183    -0.5570    -0.1767 N.pl3   
   8 N8            -3.4899    -2.5745    -0.3922 N.pl3   
   9 N9            -4.4590    -3.5373    -0.0653 N.2     
  10 N10           -4.2637     0.5437     1.6491 N.pl3   
  11 N11           -3.1187    -4.3647    -1.5347 N.2     
  12 C12           -1.0672    -0.8947     0.3188 C.ar    
  13 C13           -3.3799    -1.3092     0.1222 C.2     
  14 C14            0.0689    -0.1969    -0.1064 C.ar    
  15 C15           -0.9372    -1.9255     1.2455 C.ar    
  16 C16           -4.4336    -0.7788     1.0055 C.2     
  17 C17            1.3143    -0.5408     0.3935 C.ar    
  18 C18            0.3089    -2.2583     1.7352 C.ar    
  19 C19            1.4327    -1.5701     1.3087 C.ar    
  20 C20            1.1537     1.4806    -1.3941 C.3     
  21 C21           -2.6783    -3.1542    -1.3191 C.2     
  22 C22           -5.5648    -1.5058     1.2300 C.2     
  23 C23            0.8237     2.5800    -2.4057 C.3     
  24 C24           -4.1971    -4.5973    -0.7825 C.2     
  25 C25           -6.4627    -1.7493     0.1789 C.2     
  26 H26           -2.4216     0.2257    -0.7403 H       
  27 H27           -1.8112    -2.4641     1.5808 H       
  28 H28            2.1933    -0.0046     0.0677 H       
  29 H29            0.4085    -3.0581     2.4541 H       
  30 H30            2.4051    -1.8359     1.6961 H       
  31 H31            1.6226     1.9240    -0.5157 H       
  32 H32            1.8373     0.7629    -1.8476 H       
  33 H33           -1.8229    -2.6948    -1.7920 H       
  34 H34            0.3548     2.1366    -3.2841 H       
  35 H35            0.1402     3.2978    -1.9522 H       
  36 H36            1.7412     3.0888    -2.7015 H       
  37 H37           -4.7602    -5.5187    -0.7649 H       
@<TRIPOS>BOND
   1    1   22 1
   2    2   25 1
   3    3   25 1
   4    4   14 1
   5    4   20 1
   6    5   10 2
   7    6   10 2
   8    7   12 1
   9    7   13 1
  10    7   26 1
  11    8    9 1
  12    8   13 1
  13    8   21 1
  14    9   24 2
  15   10   16 1
  16   11   21 2
  17   11   24 1
  18   12   14 ar
  19   12   15 ar
  20   13   16 2
  21   14   17 ar
  22   15   18 ar
  23   15   27 1
  24   16   22 1
  25   17   19 ar
  26   17   28 1
  27   18   19 ar
  28   18   29 1
  29   19   30 1
  30   20   23 1
  31   20   31 1
  32   20   32 1
  33   21   33 1
  34   22   25 2
  35   23   34 1
  36   23   35 1
  37   23   36 1
  38   24   37 1

#	End of record

#	Name: 5775404
#	Creating user name:	landrgr1
#	Creation time:	28. 01. 2015 13:52

#	Modifying user name:	landrgr1
#	Modification time:	28. 01. 2015 13:52

#	Program:	corina 3.48 0006  22.01.2010

@<TRIPOS>MOLECULE
5775404
  28   29    0    0    0
SMALL
NO_CHARGES


@<TRIPOS>ATOM
   1 S1            -0.0268     1.7606     0.2976 S.3     
   2 S2             2.6226     3.3837     0.4876 S.2     
   3 O3             1.8280    -1.4794    -0.0429 O.2     
   4 O4             5.5090     0.4187    -1.4922 O.3     
   5 O5             3.4284     0.7833    -2.1415 O.2     
   6 N6             2.2446     0.6957     0.1952 N.am    
   7 N7            -3.5403    -1.0682    -0.0631 N.pl3   
   8 C8            -2.3739    -0.3366    -0.0836 C.2     
   9 C9             0.0014    -0.0037     0.1069 C.2     
  10 C10            1.4258    -0.3363     0.0789 C.2     
  11 C11           -1.0600    -0.8535     0.0090 C.2     
  12 C12            3.6954     0.4924     0.1814 C.3     
  13 C13            1.7374     1.9272     0.3256 C.2     
  14 C14           -2.7218     0.9965    -0.2117 C.2     
  15 C15           -4.5906    -0.2129    -0.1757 C.2     
  16 C16           -4.1179     1.0532    -0.2679 C.2     
  17 C17           -3.6333    -2.5255     0.0541 C.3     
  18 C18            4.2008     0.5755    -1.2359 C.2     
  19 H19           -0.8981    -1.9213     0.0020 H       
  20 H20            4.1760     1.2629     0.7843 H       
  21 H21            3.9286    -0.4894     0.5933 H       
  22 H22           -2.0431     1.8352    -0.2590 H       
  23 H23           -5.6326    -0.4966    -0.1894 H       
  24 H24           -4.7139     1.9483    -0.3669 H       
  25 H25           -3.6010    -2.8082     1.1063 H       
  26 H26           -4.5710    -2.8662    -0.3851 H       
  27 H27           -2.7972    -2.9865    -0.4718 H       
  28 H28            5.7857     0.4804    -2.4167 H       
@<TRIPOS>BOND
   1    1    9 1
   2    1   13 1
   3    2   13 2
   4    3   10 2
   5    4   18 1
   6    4   28 1
   7    5   18 2
   8    6   10 am
   9    6   12 1
  10    6   13 am
  11    7    8 1
  12    7   15 1
  13    7   17 1
  14    8   11 1
  15    8   14 2
  16    9   10 1
  17    9   11 2
  18   11   19 1
  19   12   18 1
  20   12   20 1
  21   12   21 1
  22   14   16 1
  23   14   22 1
  24   15   16 2
  25   15   23 1
  26   16   24 1
  27   17   25 1
  28   17   26 1
  29   17   27 1

#	End of record

#	Name: 5771900
#	Creating user name:	landrgr1
#	Creation time:	28. 01. 2015 13:52

#	Modifying user name:	landrgr1
#	Modification time:	28. 01. 2015 13:52

#	Program:	corina 3.48 0006  22.01.2010

@<TRIPOS>MOLECULE
5771900
  46   48    0    0    0
SMALL
NO_CHARGES


@<TRIPOS>ATOM
   1 O1            -4.6534    -4.3523     0.9362 O.2     
   2 O2             1.8791    -2.3968    -1.6131 O.3     
   3 O3             2.3701     0.0094    -0.3018 O.3     
   4 N4            -3.5970    -6.3038     0.8281 N.am    
   5 N5            -0.1159    -5.4895     0.5195 N.1     
   6 C6            -4.6964    -8.4239     0.3011 C.3     
   7 C7            -4.8579    -7.0417     0.9369 C.3     
   8 C8            -6.0133    -9.1945     0.4148 C.3     
   9 C9            -5.2308    -7.1994     2.4124 C.3     
  10 C10           -6.3862    -9.3523     1.8903 C.3     
  11 C11           -6.5476    -7.9700     2.5261 C.3     
  12 C12           -4.3236    -8.2662    -1.1743 C.3     
  13 C13           -3.6019    -4.9561     0.8374 C.2     
  14 C14           -2.3356    -4.2150     0.7281 C.2     
  15 C15           -2.3406    -2.8372     0.7376 C.2     
  16 C16           -1.1063    -2.0986     0.4631 C.ar    
  17 C17            0.9850    -1.8974    -0.7160 C.ar    
  18 C18           -0.1774    -2.5983    -0.4601 C.ar    
  19 C19            1.2324    -0.6936    -0.0578 C.ar    
  20 C20           -1.0978    -4.9257     0.6118 C.1     
  21 C21           -0.8484    -0.8883     1.1226 C.ar    
  22 C22            0.3114    -0.1972     0.8595 C.ar    
  23 C23            2.8589    -1.4847    -2.1208 C.3     
  24 C24            3.4399    -0.6973    -0.9386 C.3     
  25 H25           -3.9089    -8.9720     0.8183 H       
  26 H26           -5.6454    -6.4936     0.4197 H       
  27 H27           -6.8008    -8.6465    -0.1024 H       
  28 H28           -5.8983   -10.1793    -0.0382 H       
  29 H29           -4.4432    -7.7475     2.9296 H       
  30 H30           -5.3458    -6.2147     2.8654 H       
  31 H31           -7.3243    -9.9013     1.9713 H       
  32 H32           -5.5986    -9.9004     2.4075 H       
  33 H33           -6.8132    -8.0824     3.5772 H       
  34 H34           -7.3351    -7.4219     2.0089 H       
  35 H35           -3.3854    -7.7172    -1.2553 H       
  36 H36           -4.2085    -9.2509    -1.6273 H       
  37 H37           -5.1111    -7.7181    -1.6915 H       
  38 H38           -2.7586    -6.7852     0.7493 H       
  39 H39           -3.2549    -2.3020     0.9476 H       
  40 H40           -0.3703    -3.5303    -0.9704 H       
  41 H41           -1.5597    -0.4990     1.8360 H       
  42 H42            3.6539    -2.0392    -2.6195 H       
  43 H43            2.3911    -0.7976    -2.8259 H       
  44 H44            0.5084     0.7352     1.3677 H       
  45 H45            4.1849     0.0116    -1.3000 H       
  46 H46            3.8998    -1.3850    -0.2291 H       
@<TRIPOS>BOND
   1    1   13 2
   2    2   17 1
   3    2   23 1
   4    3   19 1
   5    3   24 1
   6    4    7 1
   7    4   13 am
   8    4   38 1
   9    5   20 3
  10    6    7 1
  11    6    8 1
  12    6   12 1
  13    6   25 1
  14    7    9 1
  15    7   26 1
  16    8   10 1
  17    8   27 1
  18    8   28 1
  19    9   11 1
  20    9   29 1
  21    9   30 1
  22   10   11 1
  23   10   31 1
  24   10   32 1
  25   11   33 1
  26   11   34 1
  27   12   35 1
  28   12   36 1
  29   12   37 1
  30   13   14 1
  31   14   15 2
  32   14   20 1
  33   15   16 1
  34   15   39 1
  35   16   18 ar
  36   16   21 ar
  37   17   18 ar
  38   17   19 ar
  39   18   40 1
  40   19   22 ar
  41   21   22 ar
  42   21   41 1
  43   22   44 1
  44   23   24 1
  45   23   42 1
  46   23   43 1
  47   24   45 1
  48   24   46 1

#	End of record

#	Name: 5771786
#	Creating user name:	landrgr1
#	Creation time:	28. 01. 2015 13:52

#	Modifying user name:	landrgr1
#	Modification time:	28. 01. 2015 13:52

#	Program:	corina 3.48 0006  22.01.2010

@<TRIPOS>MOLECULE
5771786
  51   52    0    0    0
SMALL
NO_CHARGES


@<TRIPOS>ATOM
   1 O1             2.1985     1.5584    -0.0106 O.2     
   2 N2            -0.0178     1.4608     0.0101 N.am    
   3 C3             0.0021    -0.0041     0.0020 C.3     
   4 C4             0.1462    -0.5123     1.4134 C.ar    
   5 C5            -2.5439    -1.7842    -2.2558 C.3     
   6 C6            -2.6309    -1.3725    -3.7268 C.3     
   7 C7            -1.2844    -0.5207    -0.5890 C.2     
   8 C8             1.1197     3.6573     0.0110 C.3     
   9 C9            -1.2575    -1.2676    -1.6648 C.2     
  10 C10            2.5551     4.1869     0.0001 C.3     
  11 C11            1.1401     2.1505     0.0027 C.2     
  12 C12           -3.9370    -1.8969    -4.3268 C.3     
  13 C13            2.5346     5.6937     0.0084 C.ar    
  14 C14            0.9603    -1.5978     1.6774 C.ar    
  15 C15           -0.5313     0.1106     2.4449 C.ar    
  16 C16           -4.0240    -1.4852    -5.7978 C.3     
  17 C17            1.0925    -2.0640     2.9720 C.ar    
  18 C18           -0.3991    -0.3555     3.7395 C.ar    
  19 C19            2.5367     6.3784     1.2093 C.ar    
  20 C20            2.5195     6.3913    -1.1849 C.ar    
  21 C21            0.4109    -1.4444     4.0027 C.ar    
  22 C22            2.5179     7.7606     1.2169 C.ar    
  23 C23            2.5008     7.7735    -1.1773 C.ar    
  24 C24            2.4975     8.4581     0.0236 C.ar    
  25 H25            0.8431    -0.3527    -0.5974 H       
  26 H26           -3.3889    -1.3640    -1.7103 H       
  27 H27           -2.5674    -2.8713    -2.1808 H       
  28 H28           -2.6074    -0.2853    -3.8018 H       
  29 H29           -1.7859    -1.7927    -4.2723 H       
  30 H30           -2.2285    -0.2751    -0.1255 H       
  31 H31           -0.8643     1.9343     0.0167 H       
  32 H32            0.6095     4.0088     0.9078 H       
  33 H33            0.5925     4.0184    -0.8721 H       
  34 H34           -0.3134    -1.5132    -2.1283 H       
  35 H35            3.0822     3.8258     0.8832 H       
  36 H36            3.0652     3.8354    -0.8966 H       
  37 H37           -3.9605    -2.9841    -4.2518 H       
  38 H38           -4.7819    -1.4767    -3.7813 H       
  39 H39            1.4929    -2.0819     0.8721 H       
  40 H40           -1.1636     0.9617     2.2393 H       
  41 H41           -3.1790    -1.9054    -6.3433 H       
  42 H42           -4.9544    -1.8589    -6.2253 H       
  43 H43           -4.0004    -0.3981    -5.8728 H       
  44 H44            1.7280    -2.9125     3.1782 H       
  45 H45           -0.9281     0.1313     4.5454 H       
  46 H46            2.5526     5.8334     2.1416 H       
  47 H47            2.5227     5.8565    -2.1231 H       
  48 H48            0.5139    -1.8088     5.0142 H       
  49 H49            2.5188     8.2955     2.1551 H       
  50 H50            2.4893     8.3186    -2.1096 H       
  51 H51            2.4825     9.5380     0.0296 H       
@<TRIPOS>BOND
   1    1   11 2
   2    2    3 1
   3    2   11 am
   4    2   31 1
   5    3    4 1
   6    3    7 1
   7    3   25 1
   8    4   14 ar
   9    4   15 ar
  10    5    6 1
  11    5    9 1
  12    5   26 1
  13    5   27 1
  14    6   12 1
  15    6   28 1
  16    6   29 1
  17    7    9 2
  18    7   30 1
  19    8   10 1
  20    8   11 1
  21    8   32 1
  22    8   33 1
  23    9   34 1
  24   10   13 1
  25   10   35 1
  26   10   36 1
  27   12   16 1
  28   12   37 1
  29   12   38 1
  30   13   19 ar
  31   13   20 ar
  32   14   17 ar
  33   14   39 1
  34   15   18 ar
  35   15   40 1
  36   16   41 1
  37   16   42 1
  38   16   43 1
  39   17   21 ar
  40   17   44 1
  41   18   21 ar
  42   18   45 1
  43   19   22 ar
  44   19   46 1
  45   20   23 ar
  46   20   47 1
  47   21   48 1
  48   22   24 ar
  49   22   49 1
  50   23   24 ar
  51   23   50 1
  52   24   51 1

#	End of record

#	Name: 5771729
#	Creating user name:	landrgr1
#	Creation time:	28. 01. 2015 13:52

#	Modifying user name:	landrgr1
#	Modification time:	28. 01. 2015 13:52

#	Program:	corina 3.48 0006  22.01.2010

@<TRIPOS>MOLECULE
5771729
  48   51    0    0    0
SMALL
NO_CHARGES


@<TRIPOS>ATOM
   1 O1            -4.7166    -1.4676     0.0492 O.2     
   2 O2            -2.9810     0.8379    -0.2218 O.2     
   3 O3            -0.2606     1.3872    -0.0153 O.3     
   4 N4            -2.7676    -2.6005     0.3076 N.am    
   5 N5            -1.4711    -2.5057     2.7467 N.ar    
   6 N6            -2.7642    -4.9668     4.0305 N.ar    
   7 C7            -1.3488    -2.2328     0.3207 C.3     
   8 C8            -1.2864    -0.7394     0.0980 C.2     
   9 C9            -3.2972    -3.9546     0.4866 C.3     
  10 C10           -3.5044    -1.4943     0.1107 C.2     
  11 C11           -0.7377    -2.5818     1.6532 C.ar    
  12 C12           -2.6168    -0.3081    -0.0316 C.2     
  13 C13           -0.1517     0.0426     0.0354 C.2     
  14 C14           -3.5467    -4.2069     1.9513 C.ar    
  15 C15            1.1792    -0.5898     0.0239 C.ar    
  16 C16            0.5849    -2.9774     1.7154 C.ar    
  17 C17           -4.7765    -3.9044     2.5163 C.ar    
  18 C18           -2.5531    -4.7429     2.7480 C.ar    
  19 C19            1.1377    -3.2964     2.9465 C.ar    
  20 C20            1.4590    -1.6222    -0.8770 C.ar    
  21 C21            2.1708    -0.1567     0.9098 C.ar    
  22 C22           -0.9791    -2.8016     3.9336 C.ar    
  23 C23            0.3356    -3.2049     4.0735 C.ar    
  24 C24            2.7069    -2.2086    -0.8820 C.ar    
  25 C25            3.4138    -0.7530     0.8927 C.ar    
  26 C26            3.6813    -1.7782     0.0019 C.ar    
  27 C27           -4.9610    -4.1537     3.8674 C.ar    
  28 C28           -3.9204    -4.6917     4.6013 C.ar    
  29 C29            5.0424    -2.4249    -0.0099 C.3     
  30 H30           -0.8214    -2.7519    -0.4797 H       
  31 H31           -4.2327    -4.0546    -0.0638 H       
  32 H32           -2.5753    -4.6797     0.1109 H       
  33 H33            1.1803    -3.0378     0.8164 H       
  34 H34           -5.5714    -3.4843     1.9180 H       
  35 H35           -1.5925    -4.9808     2.3157 H       
  36 H36            2.1684    -3.6090     3.0254 H       
  37 H37            0.6995    -1.9595    -1.5668 H       
  38 H38            1.9636     0.6431     1.6054 H       
  39 H39           -1.6103    -2.7271     4.8068 H       
  40 H40            0.5879     1.8492    -0.0572 H       
  41 H41            0.7329    -3.4459     5.0484 H       
  42 H42            2.9245    -3.0060    -1.5771 H       
  43 H43            4.1806    -0.4197     1.5762 H       
  44 H44           -5.9057    -3.9305     4.3407 H       
  45 H45           -4.0561    -4.8889     5.6545 H       
  46 H46            5.6923    -1.8911    -0.7033 H       
  47 H47            5.4710    -2.3878     0.9916 H       
  48 H48            4.9484    -3.4637    -0.3266 H       
@<TRIPOS>BOND
   1    1   10 2
   2    2   12 2
   3    3   13 1
   4    3   40 1
   5    4    7 1
   6    4    9 1
   7    4   10 am
   8    5   11 ar
   9    5   22 ar
  10    6   18 ar
  11    6   28 ar
  12    7    8 1
  13    7   11 1
  14    7   30 1
  15    8   12 1
  16    8   13 2
  17    9   14 1
  18    9   31 1
  19    9   32 1
  20   10   12 1
  21   11   16 ar
  22   13   15 1
  23   14   17 ar
  24   14   18 ar
  25   15   20 ar
  26   15   21 ar
  27   16   19 ar
  28   16   33 1
  29   17   27 ar
  30   17   34 1
  31   18   35 1
  32   19   23 ar
  33   19   36 1
  34   20   24 ar
  35   20   37 1
  36   21   25 ar
  37   21   38 1
  38   22   23 ar
  39   22   39 1
  40   23   41 1
  41   24   26 ar
  42   24   42 1
  43   25   26 ar
  44   25   43 1
  45   26   29 1
  46   27   28 ar
  47   27   44 1
  48   28   45 1
  49   29   46 1
  50   29   47 1
  51   29   48 1

#	End of record

#	Name: 5771717
#	Creating user name:	landrgr1
#	Creation time:	28. 01. 2015 13:52

#	Modifying user name:	landrgr1
#	Modification time:	28. 01. 2015 13:52

#	Program:	corina 3.48 0006  22.01.2010

@<TRIPOS>MOLECULE
5771717
  55   59    0    0    0
SMALL
NO_CHARGES


@<TRIPOS>ATOM
   1 O1            -0.0791     0.5665     0.6162 O.3     
   2 O2             6.5949    -1.1253    -2.1551 O.2     
   3 O3             7.6564    -1.5342    -4.8204 O.2     
   4 O4             6.8868    -0.9988    -7.4374 O.3     
   5 O5             2.7647     0.3766   -10.6587 O.3     
   6 O6             2.3268     2.5244   -10.0851 O.3     
   7 N7             4.9391    -0.0223    -3.2461 N.am    
   8 N8             2.2648    -0.3132    -0.6566 N.3     
   9 N9             0.9340    -1.4572    -5.7537 N.ar    
  10 C10            4.6434     0.2757    -4.6505 C.3     
  11 C11            4.1185     0.3775    -2.1002 C.3     
  12 C12            3.0876    -0.7140    -1.8056 C.3     
  13 C13            5.7611    -0.3319    -5.4662 C.2     
  14 C14            1.1171    -1.2166    -0.4898 C.3     
  15 C15            1.8157     1.0802    -0.7908 C.3     
  16 C16            6.0815    -0.7265    -3.1804 C.2     
  17 C17            3.3250    -0.3401    -5.0423 C.ar    
  18 C18            6.6310    -0.9365    -4.5469 C.2     
  19 C19            0.3223    -0.7996     0.7505 C.3     
  20 C20            1.0139     1.4743     0.4525 C.3     
  21 C21            5.8981    -0.2991    -6.8406 C.2     
  22 C22            2.3566     0.4099    -5.6921 C.ar    
  23 C23            3.0517    -1.6702    -4.7620 C.ar    
  24 C24            4.9669     0.4979    -7.6537 C.ar    
  25 C25            4.3540    -0.0688    -8.7776 C.ar    
  26 C26            1.1596    -0.1890    -6.0363 C.ar    
  27 C27            1.8318    -2.2005    -5.1369 C.ar    
  28 C28            4.6898     1.8253    -7.3056 C.ar    
  29 C29            3.4807     0.6831    -9.5372 C.ar    
  30 C30            3.2100     2.0069    -9.1845 C.ar    
  31 C31            3.8181     2.5690    -8.0686 C.ar    
  32 C32            1.7446     1.3884   -10.7508 C.3     
  33 H33            4.6126     1.3543    -4.8047 H       
  34 H34            4.7567     0.5193    -1.2281 H       
  35 H35            3.6041     1.3107    -2.3297 H       
  36 H36            3.6020    -1.6472    -1.5762 H       
  37 H37            2.4493    -0.8559    -2.6778 H       
  38 H38            0.4763    -1.1574    -1.3696 H       
  39 H39            1.4737    -2.2393    -0.3666 H       
  40 H40            2.6823     1.7342    -0.8874 H       
  41 H41            1.1861     1.1762    -1.6754 H       
  42 H42            0.9467    -0.9100     1.6371 H       
  43 H43           -0.5612    -1.4308     0.8459 H       
  44 H44            0.6306     2.4875     0.3324 H       
  45 H45            1.6584     1.4299     1.3304 H       
  46 H46            2.5355     1.4488    -5.9265 H       
  47 H47            3.7831    -2.2841    -4.2575 H       
  48 H48            4.5645    -1.0925    -9.0499 H       
  49 H49            5.1605     2.2661    -6.4392 H       
  50 H50            0.4002     0.3881    -6.5429 H       
  51 H51            1.6112    -3.2357    -4.9223 H       
  52 H52            6.9025    -0.9141    -8.4005 H       
  53 H53            3.6060     3.5930    -7.7989 H       
  54 H54            1.5315     1.6235   -11.7936 H       
  55 H55            0.8387     1.0666   -10.2370 H       
@<TRIPOS>BOND
   1    1   19 1
   2    1   20 1
   3    2   16 2
   4    3   18 2
   5    4   21 1
   6    4   52 1
   7    5   29 1
   8    5   32 1
   9    6   30 1
  10    6   32 1
  11    7   10 1
  12    7   11 1
  13    7   16 am
  14    8   12 1
  15    8   14 1
  16    8   15 1
  17    9   26 ar
  18    9   27 ar
  19   10   13 1
  20   10   17 1
  21   10   33 1
  22   11   12 1
  23   11   34 1
  24   11   35 1
  25   12   36 1
  26   12   37 1
  27   13   18 1
  28   13   21 2
  29   14   19 1
  30   14   38 1
  31   14   39 1
  32   15   20 1
  33   15   40 1
  34   15   41 1
  35   16   18 1
  36   17   22 ar
  37   17   23 ar
  38   19   42 1
  39   19   43 1
  40   20   44 1
  41   20   45 1
  42   21   24 1
  43   22   26 ar
  44   22   46 1
  45   23   27 ar
  46   23   47 1
  47   24   25 ar
  48   24   28 ar
  49   25   29 ar
  50   25   48 1
  51   26   50 1
  52   27   51 1
  53   28   31 ar
  54   28   49 1
  55   29   30 ar
  56   30   31 ar
  57   31   53 1
  58   32   54 1
  59   32   55 1

#	End of record

#	Name: 5771476
#	Creating user name:	landrgr1
#	Creation time:	28. 01. 2015 13:52

#	Modifying user name:	landrgr1
#	Modification time:	28. 01. 2015 13:52

#	Program:	corina 3.48 0006  22.01.2010

@<TRIPOS>MOLECULE
5771476
  30   32    0    0    0
SMALL
NO_CHARGES


@<TRIPOS>ATOM
   1 F1             5.2981    -1.1789     1.2984 F       
   2 O2             3.5754     4.3098    -0.1094 O.2     
   3 N3            -0.0170     1.4011     0.0097 N.pl3   
   4 N4             0.0021    -0.0041     0.0020 N.pl3   
   5 N5             1.7981     3.0455    -0.0225 N.2     
   6 C6             3.5999     0.7628     0.1644 C.3     
   7 C7             2.0962     0.6648     0.0788 C.2     
   8 C8             4.0280     2.0579    -0.5334 C.3     
   9 C9             4.0272     0.7968     1.6091 C.ar    
  10 C10            1.2763     1.8220    -0.0003 C.2     
  11 C11            1.3046    -0.4157     0.0622 C.2     
  12 C12            3.1033     3.1937    -0.2080 C.2     
  13 C13            1.7721    -1.8477     0.1039 C.3     
  14 C14            4.8646    -0.1874     2.1071 C.ar    
  15 C15            3.5883     1.8131     2.4360 C.ar    
  16 C16            5.2567    -0.1546     3.4344 C.ar    
  17 C17            3.9806     1.8448     3.7614 C.ar    
  18 C18            4.8121     0.8601     4.2609 C.ar    
  19 H19            4.0542    -0.0928    -0.3353 H       
  20 H20            5.0369     2.3177    -0.2130 H       
  21 H21            4.0287     1.8976    -1.6115 H       
  22 H22           -0.8057     1.9657     0.0167 H       
  23 H23           -0.7754    -0.5827    -0.0390 H       
  24 H24            0.9088    -2.5126     0.0782 H       
  25 H25            2.4099    -2.0469    -0.7573 H       
  26 H26            2.3358    -2.0194     1.0209 H       
  27 H27            2.9388     2.5832     2.0467 H       
  28 H28            5.9094    -0.9218     3.8239 H       
  29 H29            3.6373     2.6397     4.4069 H       
  30 H30            5.1176     0.8857     5.2965 H       
@<TRIPOS>BOND
   1    1   14 1
   2    2   12 2
   3    3    4 1
   4    3   10 1
   5    3   22 1
   6    4   11 1
   7    4   23 1
   8    5   10 2
   9    5   12 1
  10    6    7 1
  11    6    8 1
  12    6    9 1
  13    6   19 1
  14    7   10 1
  15    7   11 2
  16    8   12 1
  17    8   20 1
  18    8   21 1
  19    9   14 ar
  20    9   15 ar
  21   11   13 1
  22   13   24 1
  23   13   25 1
  24   13   26 1
  25   14   16 ar
  26   15   17 ar
  27   15   27 1
  28   16   18 ar
  29   16   28 1
  30   17   18 ar
  31   17   29 1
  32   18   30 1

#	End of record

#	Name: 5771441
#	Creating user name:	landrgr1
#	Creation time:	28. 01. 2015 13:52

#	Modifying user name:	landrgr1
#	Modification time:	28. 01. 2015 13:52

#	Program:	corina 3.48 0006  22.01.2010

@<TRIPOS>MOLECULE
5771441
  31   32    0    0    0
SMALL
NO_CHARGES


@<TRIPOS>ATOM
   1 O1             2.2011     1.5570    -0.0106 O.2     
   2 O2             2.3007     9.6907     0.0316 O.2     
   3 N3            -0.0178     1.4608     0.0101 N.am    
   4 N4             2.2971     5.6813     0.0102 N.pl3   
   5 N5            -2.0469    -0.6637     1.1603 N.ar    
   6 N6             2.2829     8.4729     0.0252 N.2     
   7 C7             0.0021    -0.0041     0.0020 C.3     
   8 C8             1.1201     3.6274     0.0108 C.2     
   9 C9            -1.4117    -0.5257     0.0127 C.ar    
  10 C10            1.1401     2.1505     0.0027 C.2     
  11 C11            2.3073     4.3409     0.0033 C.2     
  12 C12           -0.1063     4.3197     0.0258 C.2     
  13 C13            1.1252     6.3751     0.0247 C.2     
  14 C14           -0.0955     5.6996     0.0327 C.2     
  15 C15           -2.0274    -0.8543    -1.1799 C.ar    
  16 C16           -3.3284    -1.3339    -1.1591 C.ar    
  17 C17           -3.9636    -1.4653     0.0661 C.ar    
  18 C18           -3.2839    -1.1165     1.2180 C.ar    
  19 C19            1.1465     7.8386     0.0323 C.2     
  20 H20            0.5123    -0.3556    -0.8948 H       
  21 H21            0.5293    -0.3651     0.8851 H       
  22 H22           -0.8643     1.9343     0.0167 H       
  23 H23            3.2492     3.8127    -0.0085 H       
  24 H24           -1.0411     3.7789     0.0315 H       
  25 H25            3.1380     6.1649     0.0089 H       
  26 H26           -1.0236     6.2517     0.0438 H       
  27 H27           -1.5022    -0.7387    -2.1165 H       
  28 H28           -3.8349    -1.5983    -2.0756 H       
  29 H29           -4.9769    -1.8352     0.1198 H       
  30 H30           -3.7716    -1.2162     2.1765 H       
  31 H31            0.2192     8.3921     0.0437 H       
@<TRIPOS>BOND
   1    1   10 2
   2    2    6 2
   3    3    7 1
   4    3   10 am
   5    3   22 1
   6    4   11 1
   7    4   13 1
   8    4   25 1
   9    5    9 ar
  10    5   18 ar
  11    6   19 1
  12    7    9 1
  13    7   20 1
  14    7   21 1
  15    8   10 1
  16    8   11 2
  17    8   12 1
  18    9   15 ar
  19   11   23 1
  20   12   14 2
  21   12   24 1
  22   13   14 1
  23   13   19 2
  24   14   26 1
  25   15   16 ar
  26   15   27 1
  27   16   17 ar
  28   16   28 1
  29   17   18 ar
  30   17   29 1
  31   18   30 1
  32   19   31 1

#	End of record

#	Name: 5771362
#	Creating user name:	landrgr1
#	Creation time:	28. 01. 2015 13:52

#	Modifying user name:	landrgr1
#	Modification time:	28. 01. 2015 13:52

#	Program:	corina 3.48 0006  22.01.2010

@<TRIPOS>MOLECULE
5771362
  46   47    0    0    0
SMALL
NO_CHARGES


@<TRIPOS>ATOM
   1 O1             4.8620     5.7254    -0.0136 O.2     
   2 O2             4.7446    13.8589     0.0295 O.2     
   3 N3            -0.0178     1.4648     0.0101 N.3     
   4 N4             2.6465     5.5700     0.0067 N.am    
   5 N5             4.8480     9.8509     0.0082 N.pl3   
   6 N6             4.7593    12.6410     0.0232 N.2     
   7 C7             0.0021    -0.0041     0.0020 C.3     
   8 C8            -1.2924    -0.5351     0.6212 C.3     
   9 C9             0.1210    -0.5046    -1.4389 C.3     
  10 C10           -1.2716    -2.0649     0.6128 C.3     
  11 C11            0.1417    -2.0344    -1.4473 C.3     
  12 C12           -1.1527    -2.5654    -0.8281 C.3     
  13 C13            1.3463     2.0098    -0.0000 C.3     
  14 C14            1.2847     3.5386     0.0088 C.3     
  15 C15            2.7054     4.1063    -0.0017 C.3     
  16 C16            3.7856     6.2904    -0.0003 C.2     
  17 C17            3.7262     7.7662     0.0082 C.2     
  18 C18            4.8939     8.5111     0.0010 C.2     
  19 C19            2.4817     8.4256     0.0231 C.2     
  20 C20            2.4558     9.8053     0.0304 C.2     
  21 C21            3.6580    10.5131     0.0227 C.2     
  22 C22            3.6403    11.9767     0.0303 C.2     
  23 H23            0.8543    -0.3591     0.5815 H       
  24 H24           -1.3771    -0.1785     1.6477 H       
  25 H25           -2.1446    -0.1801     0.0418 H       
  26 H26           -0.7313    -0.1496    -2.0183 H       
  27 H27            1.0432    -0.1263    -1.8800 H       
  28 H28           -0.4194    -2.4199     1.1922 H       
  29 H29           -2.1938    -2.4432     1.0539 H       
  30 H30            0.2264    -2.3910    -2.4739 H       
  31 H31            0.9940    -2.3894    -0.8679 H       
  32 H32           -1.1379    -3.6553    -0.8341 H       
  33 H33           -2.0050    -2.2104    -1.4076 H       
  34 H34           -0.5563     1.8234    -0.7642 H       
  35 H35            1.8828     1.6627     0.8830 H       
  36 H36            1.8658     1.6723    -0.8968 H       
  37 H37            0.7482     3.8857    -0.8743 H       
  38 H38            0.7652     3.8761     0.9056 H       
  39 H39            3.2250     3.7687    -0.8985 H       
  40 H40            3.2420     3.7591     0.8813 H       
  41 H41            1.7877     6.0208     0.0173 H       
  42 H42            5.8496     8.0083    -0.0108 H       
  43 H43            1.5617     7.8600     0.0285 H       
  44 H44            5.6756    10.3567     0.0071 H       
  45 H45            1.5132    10.3324     0.0415 H       
  46 H46            2.6986    12.5053     0.0417 H       
@<TRIPOS>BOND
   1    1   16 2
   2    2    6 2
   3    3    7 1
   4    3   13 1
   5    3   34 1
   6    4   15 1
   7    4   16 am
   8    4   41 1
   9    5   18 1
  10    5   21 1
  11    5   44 1
  12    6   22 1
  13    7    8 1
  14    7    9 1
  15    7   23 1
  16    8   10 1
  17    8   24 1
  18    8   25 1
  19    9   11 1
  20    9   26 1
  21    9   27 1
  22   10   12 1
  23   10   28 1
  24   10   29 1
  25   11   12 1
  26   11   30 1
  27   11   31 1
  28   12   32 1
  29   12   33 1
  30   13   14 1
  31   13   35 1
  32   13   36 1
  33   14   15 1
  34   14   37 1
  35   14   38 1
  36   15   39 1
  37   15   40 1
  38   16   17 1
  39   17   18 2
  40   17   19 1
  41   18   42 1
  42   19   20 2
  43   19   43 1
  44   20   21 1
  45   20   45 1
  46   21   22 2
  47   22   46 1

#	End of record

#	Name: 5771359
#	Creating user name:	landrgr1
#	Creation time:	28. 01. 2015 13:52

#	Modifying user name:	landrgr1
#	Modification time:	28. 01. 2015 13:52

#	Program:	corina 3.48 0006  22.01.2010

@<TRIPOS>MOLECULE
5771359
  48   52    0    0    0
SMALL
NO_CHARGES


@<TRIPOS>ATOM
   1 S1            -0.0218     1.7546     0.0117 S.3     
   2 S2            -3.9740     1.1488     4.1148 S.3     
   3 O3             0.3195    -1.9638    -2.0172 O.2     
   4 N4            -2.2073    -0.2993     0.9170 N.pl3   
   5 N5            -3.7600    -0.1738    -0.8482 N.2     
   6 N6            -2.1983     0.0378     2.2729 N.pl3   
   7 N7            -4.1598     0.5347     1.4410 N.2     
   8 C8            -1.2174    -0.8895     0.0081 C.3     
   9 C9            -1.6671    -1.0856    -1.4272 C.2     
  10 C10           -2.9512    -0.6967    -1.7580 C.2     
  11 C11           -3.4429    -0.8557    -3.1767 C.3     
  12 C12           -2.7524    -2.0578    -3.8248 C.3     
  13 C13           -1.2365    -1.8420    -3.7863 C.3     
  14 C14           -0.8027    -1.6388    -2.3573 C.2     
  15 C15           -3.4493     0.0245     0.4265 C.2     
  16 C16            0.0021    -0.0041     0.0020 C.2     
  17 C17           -3.4338     0.5579     2.5452 C.2     
  18 C18            1.2646    -0.4342    -0.0123 C.2     
  19 C19            2.2216     0.5659    -0.0161 C.2     
  20 C20            1.7362     1.8083    -0.0048 C.2     
  21 C21           -5.6589     1.6599     3.6954 C.3     
  22 C22           -6.3357     2.2148     4.9222 C.ar    
  23 C23           -6.2458     3.5639     5.2107 C.ar    
  24 C24           -7.0509     1.3760     5.7560 C.ar    
  25 C25           -6.8664     4.0729     6.3359 C.ar    
  26 C26           -5.4707     4.4795     4.2985 C.3     
  27 C27           -7.6718     1.8851     6.8815 C.ar    
  28 C28           -7.5775     3.2329     7.1728 C.ar    
  29 H29           -0.9243    -1.8601     0.4084 H       
  30 H30           -4.5211    -1.0152    -3.1718 H       
  31 H31           -3.2117     0.0456    -3.7445 H       
  32 H32           -3.0060    -2.9642    -3.2750 H       
  33 H33           -3.0812    -2.1531    -4.8596 H       
  34 H34           -0.7332    -2.7147    -4.2023 H       
  35 H35           -0.9790    -0.9580    -4.3697 H       
  36 H36           -1.4634    -0.0744     2.8961 H       
  37 H37            1.5208    -1.4834    -0.0201 H       
  38 H38            3.2810     0.3563    -0.0270 H       
  39 H39            2.3315     2.7094    -0.0060 H       
  40 H40           -5.6240     2.4267     2.9215 H       
  41 H41           -6.2191     0.7995     3.3293 H       
  42 H42           -7.1251     0.3229     5.5281 H       
  43 H43           -6.7956     5.1266     6.5617 H       
  44 H44           -6.1352     4.8743     3.5299 H       
  45 H45           -5.0557     5.3039     4.8784 H       
  46 H46           -4.6607     3.9226     3.8275 H       
  47 H47           -8.2309     1.2297     7.5328 H       
  48 H48           -8.0622     3.6305     8.0522 H       
@<TRIPOS>BOND
   1    1   16 1
   2    1   20 1
   3    2   17 1
   4    2   21 1
   5    3   14 2
   6    4    6 1
   7    4    8 1
   8    4   15 1
   9    5   10 1
  10    5   15 2
  11    6   17 1
  12    6   36 1
  13    7   15 1
  14    7   17 2
  15    8    9 1
  16    8   16 1
  17    8   29 1
  18    9   10 2
  19    9   14 1
  20   10   11 1
  21   11   12 1
  22   11   30 1
  23   11   31 1
  24   12   13 1
  25   12   32 1
  26   12   33 1
  27   13   14 1
  28   13   34 1
  29   13   35 1
  30   16   18 2
  31   18   19 1
  32   18   37 1
  33   19   20 2
  34   19   38 1
  35   20   39 1
  36   21   22 1
  37   21   40 1
  38   21   41 1
  39   22   23 ar
  40   22   24 ar
  41   23   25 ar
  42   23   26 1
  43   24   27 ar
  44   24   42 1
  45   25   28 ar
  46   25   43 1
  47   26   44 1
  48   26   45 1
  49   26   46 1
  50   27   28 ar
  51   27   47 1
  52   28   48 1

#	End of record

#	Name: 5771344
#	Creating user name:	landrgr1
#	Creation time:	28. 01. 2015 13:52

#	Modifying user name:	landrgr1
#	Modification time:	28. 01. 2015 13:52

#	Program:	corina 3.48 0006  22.01.2010

@<TRIPOS>MOLECULE
5771344
  47   50    0    0    0
SMALL
NO_CHARGES


@<TRIPOS>ATOM
   1 S1             0.2284     1.4976     1.1747 S.3     
   2 S2             5.4143     4.6537     4.0220 S.3     
   3 O3             1.4678     3.6592     2.4407 O.2     
   4 N4            -1.0309    -0.6515    -0.0919 N.pl3   
   5 N5             0.5651    -2.1325    -0.2425 N.pl3   
   6 N6             1.0642    -0.9851     0.3886 N.2     
   7 N7            -2.4183    -4.3549    -2.5312 N.2     
   8 N8             3.5608     3.0121     2.7907 N.am    
   9 N9             3.0658     5.2220     3.5641 N.2     
  10 N10            3.5176     6.2569     4.1287 N.2     
  11 C11           -0.7321    -1.9059    -0.5260 C.2     
  12 C12           -1.6187    -2.8049    -1.1569 C.2     
  13 C13           -3.0363    -3.0302    -0.8437 C.ar    
  14 C14           -2.3356     0.0064    -0.1976 C.3     
  15 C15            0.1004    -0.1111     0.4676 C.2     
  16 C16           -3.4648    -4.0229    -1.7568 C.ar    
  17 C17           -1.3372    -3.6778    -2.2194 C.2     
  18 C18           -3.9301    -2.5021     0.0844 C.ar    
  19 C19           -2.3524     0.9105    -1.4318 C.3     
  20 C20           -4.7965    -4.4574    -1.7053 C.ar    
  21 C21           -5.2219    -2.9483     0.1085 C.ar    
  22 C22           -5.6503    -3.9223    -0.7855 C.ar    
  23 C23            1.9658     1.4808     1.6817 C.3     
  24 C24            2.3124     2.7957     2.3313 C.2     
  25 C25            5.5188     7.3350     5.1700 C.3     
  26 C26            3.8806     4.2256     3.3902 C.2     
  27 C27            4.7627     6.2263     4.4842 C.2     
  28 C28            5.3942     7.1751     6.6865 C.3     
  29 H29           -3.1166    -0.7483    -0.2894 H       
  30 H30           -2.5133     0.6065     0.6948 H       
  31 H31            1.0613    -2.9435    -0.4348 H       
  32 H32           -0.3781    -3.7777    -2.7058 H       
  33 H33           -3.6041    -1.7448     0.7820 H       
  34 H34           -3.3231     1.4000    -1.5104 H       
  35 H35           -1.5713     1.6652    -1.3400 H       
  36 H36           -2.1747     0.3104    -2.3242 H       
  37 H37           -5.1459    -5.2137    -2.3925 H       
  38 H38           -5.9161    -2.5394     0.8278 H       
  39 H39           -6.6752    -4.2612    -0.7514 H       
  40 H40            2.1292     0.6704     2.3922 H       
  41 H41            2.5982     1.3299     0.8068 H       
  42 H42            4.2363     2.3215     2.7032 H       
  43 H43            6.5698     7.2885     4.8848 H       
  44 H44            5.1033     8.2973     4.8708 H       
  45 H45            4.3432     7.2216     6.9717 H       
  46 H46            5.8097     6.2128     6.9857 H       
  47 H47            5.9411     7.9770     7.1826 H       
@<TRIPOS>BOND
   1    1   15 1
   2    1   23 1
   3    2   26 1
   4    2   27 1
   5    3   24 2
   6    4   11 1
   7    4   14 1
   8    4   15 1
   9    5    6 1
  10    5   11 1
  11    5   31 1
  12    6   15 2
  13    7   16 1
  14    7   17 2
  15    8   24 am
  16    8   26 1
  17    8   42 1
  18    9   10 1
  19    9   26 2
  20   10   27 2
  21   11   12 2
  22   12   13 1
  23   12   17 1
  24   13   16 ar
  25   13   18 ar
  26   14   19 1
  27   14   29 1
  28   14   30 1
  29   16   20 ar
  30   17   32 1
  31   18   21 ar
  32   18   33 1
  33   19   34 1
  34   19   35 1
  35   19   36 1
  36   20   22 ar
  37   20   37 1
  38   21   22 ar
  39   21   38 1
  40   22   39 1
  41   23   24 1
  42   23   40 1
  43   23   41 1
  44   25   27 1
  45   25   28 1
  46   25   43 1
  47   25   44 1
  48   28   45 1
  49   28   46 1
  50   28   47 1

#	End of record

#	Name: 5771324
#	Creating user name:	landrgr1
#	Creation time:	28. 01. 2015 13:52

#	Modifying user name:	landrgr1
#	Modification time:	28. 01. 2015 13:52

#	Program:	corina 3.48 0006  22.01.2010

@<TRIPOS>MOLECULE
5771324
  33   36    0    0    0
SMALL
NO_CHARGES


@<TRIPOS>ATOM
   1 S1            -0.0218     1.7546     0.0117 S.3     
   2 N2            -2.2307    -0.3353     0.9040 N.pl3   
   3 N3            -3.4097     0.8506    -0.7709 N.2     
   4 N4            -2.4099    -0.4696     2.2766 N.pl3   
   5 N5            -4.0106     0.7499     1.5690 N.2     
   6 N6            -3.4776     0.1834     2.5966 N.2     
   7 C7            -1.2174    -0.8895     0.0081 C.3     
   8 C8            -1.8351    -0.9401    -1.3991 C.3     
   9 C9            -2.4088     0.4309    -1.7594 C.3     
  10 C10            0.0021    -0.0041     0.0020 C.2     
  11 C11           -3.2704     0.4774     0.4680 C.2     
  12 C12           -3.0544     0.3572    -3.1191 C.ar    
  13 C13            1.2646    -0.4342    -0.0123 C.2     
  14 C14           -2.3678     0.7978    -4.2350 C.ar    
  15 C15           -4.3310    -0.1563    -3.2511 C.ar    
  16 C16            2.2216     0.5659    -0.0161 C.2     
  17 C17            1.7362     1.8083    -0.0048 C.2     
  18 C18           -2.9600     0.7302    -5.4822 C.ar    
  19 C19           -4.9232    -0.2240    -4.4983 C.ar    
  20 C20           -4.2387     0.2216    -5.6136 C.ar    
  21 H21           -0.9460    -1.8946     0.3310 H       
  22 H22           -1.0671    -1.2135    -2.1227 H       
  23 H23           -2.6321    -1.6834    -1.4189 H       
  24 H24           -1.6011     1.1625    -1.7854 H       
  25 H25           -1.8372    -0.9641     2.8835 H       
  26 H26            1.5208    -1.4834    -0.0201 H       
  27 H27           -1.3688     1.1952    -4.1324 H       
  28 H28           -4.8656    -0.5050    -2.3799 H       
  29 H29            3.2810     0.3563    -0.0270 H       
  30 H30            2.3315     2.7094    -0.0060 H       
  31 H31           -2.4239     1.0751    -6.3540 H       
  32 H32           -5.9205    -0.6255    -4.6015 H       
  33 H33           -4.7015     0.1691    -6.5880 H       
@<TRIPOS>BOND
   1    1   10 1
   2    1   17 1
   3    2    4 1
   4    2    7 1
   5    2   11 1
   6    3    9 1
   7    3   11 2
   8    4    6 1
   9    4   25 1
  10    5    6 2
  11    5   11 1
  12    7    8 1
  13    7   10 1
  14    7   21 1
  15    8    9 1
  16    8   22 1
  17    8   23 1
  18    9   12 1
  19    9   24 1
  20   10   13 2
  21   12   14 ar
  22   12   15 ar
  23   13   16 1
  24   13   26 1
  25   14   18 ar
  26   14   27 1
  27   15   19 ar
  28   15   28 1
  29   16   17 2
  30   16   29 1
  31   17   30 1
  32   18   20 ar
  33   18   31 1
  34   19   20 ar
  35   19   32 1
  36   20   33 1

#	End of record

#	Name: 5771282
#	Creating user name:	landrgr1
#	Creation time:	28. 01. 2015 13:52

#	Modifying user name:	landrgr1
#	Modification time:	28. 01. 2015 13:52

#	Program:	corina 3.48 0006  22.01.2010

@<TRIPOS>MOLECULE
5771282
  40   42    0    0    0
SMALL
NO_CHARGES


@<TRIPOS>ATOM
   1 O1             0.1310     1.3054    -0.2392 O.3     
   2 O2             4.6062     1.6191     1.3515 O.3     
   3 O3             0.7294    -1.5949     1.5921 O.2     
   4 O4             6.6750     1.7881     2.0731 O.2     
   5 O5             3.6892    -4.1134     3.4972 O.3     
   6 N6             2.8390    -1.4091     2.9163 N.pl3   
   7 C7             0.1404    -0.1194    -0.1688 C.3     
   8 C8             2.3656     1.4475     0.5621 C.ar    
   9 C9             1.0003    -0.5798     0.9821 C.2     
  10 C10            2.1335     0.1999     1.3373 C.2     
  11 C11            1.3217     1.9555    -0.2152 C.ar    
  12 C12           -1.2892    -0.6261     0.0323 C.3     
  13 C13            0.6966    -0.6876    -1.4759 C.3     
  14 C14            3.5957     2.1031     0.6035 C.ar    
  15 C15            3.7623     3.2785    -0.1505 C.ar    
  16 C16            1.5074     3.1187    -0.9550 C.ar    
  17 C17            2.9727    -0.1798     2.3456 C.2     
  18 C18            2.7063     3.7723    -0.9264 C.ar    
  19 C19            5.0527     3.9709    -0.1094 C.2     
  20 C20            3.6522    -1.7685     4.0807 C.3     
  21 C21            6.0338     3.4350     0.6635 C.2     
  22 C22            5.7825     2.2528     1.3868 C.2     
  23 C23            3.3096    -3.1928     4.5221 C.3     
  24 H24           -1.9091    -0.3067    -0.8053 H       
  25 H25           -1.2845    -1.7148     0.0865 H       
  26 H26           -1.6923    -0.2180     0.9592 H       
  27 H27            1.7128    -0.3234    -1.6271 H       
  28 H28            0.7048    -1.7764    -1.4244 H       
  29 H29            0.0686    -0.3679    -2.3075 H       
  30 H30            0.6986     3.5073    -1.5561 H       
  31 H31            3.7423     0.4949     2.6905 H       
  32 H32            2.8405     4.6745    -1.5046 H       
  33 H33            5.2187     4.8762    -0.6743 H       
  34 H34            2.2054    -2.0467     2.5518 H       
  35 H35            4.7084    -1.7140     3.8170 H       
  36 H36            3.4451    -1.0756     4.8963 H       
  37 H37            7.0006     3.9127     0.7224 H       
  38 H38            2.2370    -3.2698     4.7005 H       
  39 H39            3.8484    -3.4283     5.4398 H       
  40 H40            3.5009    -5.0378     3.7094 H       
@<TRIPOS>BOND
   1    1    7 1
   2    1   11 1
   3    2   14 1
   4    2   22 1
   5    3    9 2
   6    4   22 2
   7    5   23 1
   8    5   40 1
   9    6   17 1
  10    6   20 1
  11    6   34 1
  12    7    9 1
  13    7   12 1
  14    7   13 1
  15    8   10 1
  16    8   11 ar
  17    8   14 ar
  18    9   10 1
  19   10   17 2
  20   11   16 ar
  21   12   24 1
  22   12   25 1
  23   12   26 1
  24   13   27 1
  25   13   28 1
  26   13   29 1
  27   14   15 ar
  28   15   18 ar
  29   15   19 1
  30   16   18 ar
  31   16   30 1
  32   17   31 1
  33   18   32 1
  34   19   21 2
  35   19   33 1
  36   20   23 1
  37   20   35 1
  38   20   36 1
  39   21   22 1
  40   21   37 1
  41   23   38 1
  42   23   39 1

#	End of record

#	Name: 5770923
#	Creating user name:	landrgr1
#	Creation time:	28. 01. 2015 13:52

#	Modifying user name:	landrgr1
#	Modification time:	28. 01. 2015 13:52

#	Program:	corina 3.48 0006  22.01.2010

@<TRIPOS>MOLECULE
5770923
  59   62    0    0    0
SMALL
NO_CHARGES


@<TRIPOS>ATOM
   1 O1             6.7833    -7.0337     2.0578 O.2     
   2 O2             4.3461    -5.4757     0.5230 O.2     
   3 O3             5.4833    -0.6900     0.8319 O.2     
   4 O4             2.8186     2.7325     2.0491 O.3     
   5 N5             6.7132    -9.0443     1.1225 N.am    
   6 N6             6.4759    -5.5713    -0.0993 N.am    
   7 N7             3.3536    -0.5943     1.4542 N.am    
   8 N8             2.4535     1.5808     2.0007 N.2     
   9 C9             6.9484    -9.7009     2.4108 C.3     
  10 C10            6.3825   -11.1316     2.3843 C.3     
  11 C11            8.4637    -9.8311     2.6688 C.3     
  12 C12            7.5738   -12.0812     2.6270 C.3     
  13 C13            8.6133   -11.2047     3.3687 C.3     
  14 C14            6.6476    -7.6999     1.0534 C.2     
  15 C15            6.4057    -7.0244    -0.2718 C.3     
  16 C16            7.6693    -4.8963    -0.3514 C.ar    
  17 C17            7.9702    -4.4436    -1.6546 C.ar    
  18 C18            5.3868    -4.8870     0.3032 C.2     
  19 C19            8.5639    -4.6597     0.6704 C.ar    
  20 C20            9.1888    -3.7595    -1.8870 C.ar    
  21 C21            7.0860    -4.6589    -2.7224 C.ar    
  22 C22           10.0760    -3.5439    -0.8183 C.ar    
  23 C23            9.7577    -3.9859     0.4294 C.ar    
  24 C24            9.4884    -3.3088    -3.1839 C.ar    
  25 C25            5.4575    -3.4237     0.4769 C.2     
  26 C26            7.4091    -4.2085    -3.9666 C.ar    
  27 C27            8.6066    -3.5350    -4.1963 C.ar    
  28 C28            4.3721    -2.7418     0.8780 C.2     
  29 C29            4.4428    -1.2786     1.0517 C.2     
  30 C30            3.4204     0.7880     1.6183 C.2     
  31 C31            4.5528     1.6185     1.4043 C.2     
  32 C32            4.1061     2.8609     1.6973 C.2     
  33 C33            4.9005     4.1402     1.6397 C.3     
  34 H34            6.4803    -9.1290     3.2120 H       
  35 H35            5.6404   -11.2543     3.1732 H       
  36 H36            5.9329   -11.3373     1.4129 H       
  37 H37            9.0132    -9.8208     1.7275 H       
  38 H38            8.8096    -9.0302     3.3223 H       
  39 H39            7.2702   -12.9225     3.2501 H       
  40 H40            7.9795   -12.4343     1.6790 H       
  41 H41            9.6198   -11.6002     3.2323 H       
  42 H42            8.3678   -11.1272     4.4279 H       
  43 H43            6.6047    -9.5771     0.3192 H       
  44 H44            5.4189    -7.2987    -0.6447 H       
  45 H45            7.1653    -7.3426    -0.9859 H       
  46 H46            8.3357    -5.0007     1.6694 H       
  47 H47            6.1540    -5.1794    -2.5588 H       
  48 H48           11.0075    -3.0237    -0.9859 H       
  49 H49           10.4432    -3.8115     1.2456 H       
  50 H50           10.4132    -2.7854    -3.3765 H       
  51 H51            6.3820    -2.9008     0.2816 H       
  52 H52            6.7267    -4.3756    -4.7869 H       
  53 H53            8.8390    -3.1873    -5.1920 H       
  54 H54            3.4475    -3.2648     1.0733 H       
  55 H55            2.5232    -1.0640     1.6296 H       
  56 H56            5.5412     1.3257     1.0822 H       
  57 H57            4.2652     4.9759     1.9333 H       
  58 H58            5.7488     4.0721     2.3207 H       
  59 H59            5.2620     4.2980     0.6236 H       
@<TRIPOS>BOND
   1    1   14 2
   2    2   18 2
   3    3   29 2
   4    4    8 1
   5    4   32 1
   6    5    9 1
   7    5   14 am
   8    5   43 1
   9    6   15 1
  10    6   16 1
  11    6   18 am
  12    7   29 am
  13    7   30 1
  14    7   55 1
  15    8   30 2
  16    9   10 1
  17    9   11 1
  18    9   34 1
  19   10   12 1
  20   10   35 1
  21   10   36 1
  22   11   13 1
  23   11   37 1
  24   11   38 1
  25   12   13 1
  26   12   39 1
  27   12   40 1
  28   13   41 1
  29   13   42 1
  30   14   15 1
  31   15   44 1
  32   15   45 1
  33   16   17 ar
  34   16   19 ar
  35   17   20 ar
  36   17   21 ar
  37   18   25 1
  38   19   23 ar
  39   19   46 1
  40   20   22 ar
  41   20   24 ar
  42   21   26 ar
  43   21   47 1
  44   22   23 ar
  45   22   48 1
  46   23   49 1
  47   24   27 ar
  48   24   50 1
  49   25   28 2
  50   25   51 1
  51   26   27 ar
  52   26   52 1
  53   27   53 1
  54   28   29 1
  55   28   54 1
  56   30   31 1
  57   31   32 2
  58   31   56 1
  59   32   33 1
  60   33   57 1
  61   33   58 1
  62   33   59 1

#	End of record

#	Name: 5770777
#	Creating user name:	landrgr1
#	Creation time:	28. 01. 2015 13:52

#	Modifying user name:	landrgr1
#	Modification time:	28. 01. 2015 13:52

#	Program:	corina 3.48 0006  22.01.2010

@<TRIPOS>MOLECULE
5770777
  54   57    0    0    0
SMALL
NO_CHARGES


@<TRIPOS>ATOM
   1 S1            -0.0109     1.8113     0.2585 S.3     
   2 O2             2.6354     5.1337     2.4413 O.3     
   3 O3            -1.6761    -1.1040     1.3971 O.2     
   4 O4             1.5005    -0.8865    -1.4761 O.2     
   5 O5             7.4185     7.2952    -0.1987 O.2     
   6 N6             2.2984     3.3760     0.1176 N.pl3   
   7 N7             3.8759     1.9067    -0.1608 N.pl3   
   8 N8             2.6463     1.2397    -0.0707 N.2     
   9 C9            -1.8935    -0.9082    -2.0296 C.3     
  10 C10           -2.4334    -0.3376    -0.7153 C.3     
  11 C11           -0.5797    -0.2102    -2.3919 C.3     
  12 C12           -0.0026     0.0058     0.1305 C.3     
  13 C13            1.3732     4.9210     1.7724 C.3     
  14 C14           -1.3983    -0.5338     0.3695 C.2     
  15 C15            0.4110    -0.4095    -1.2669 C.2     
  16 C16           -1.6454    -2.4094    -1.8694 C.3     
  17 C17           -2.9167    -0.6777    -3.1435 C.3     
  18 C18            0.5951     6.2410     1.9690 C.3     
  19 C19            1.5983     4.6522     0.2831 C.3     
  20 C20            1.2241     6.8624     3.2360 C.3     
  21 C21            2.3078     5.8445     3.6551 C.3     
  22 C22            1.7128     2.1375     0.0940 C.2     
  23 C23            3.6304     3.2203    -0.0437 C.2     
  24 C24            4.6283     4.2939    -0.0843 C.2     
  25 C25            5.9282     4.0613     0.3884 C.2     
  26 C26            4.2846     5.5516    -0.6011 C.2     
  27 C27            6.8555     5.0588     0.3502 C.2     
  28 C28            5.2120     6.5490    -0.6392 C.2     
  29 C29            6.5103     6.3181    -0.1617 C.2     
  30 H30           -2.6377     0.7262    -0.8363 H       
  31 H31           -3.3514    -0.8578    -0.4418 H       
  32 H32           -0.1797    -0.6399    -3.3104 H       
  33 H33           -0.7601     0.8552    -2.5345 H       
  34 H34            0.6873    -0.4142     0.8624 H       
  35 H35            0.8355     4.0915     2.2315 H       
  36 H36           -2.5810    -2.9071    -1.6141 H       
  37 H37           -1.2610    -2.8160    -2.8048 H       
  38 H38           -0.9175    -2.5747    -1.0751 H       
  39 H39           -3.0951     0.3916    -3.2574 H       
  40 H40           -2.5328    -1.0837    -4.0793 H       
  41 H41           -3.8513    -1.1767    -2.8873 H       
  42 H42            0.7354     6.8985     1.1111 H       
  43 H43           -0.4643     6.0397     2.1279 H       
  44 H44            2.1998     5.4546    -0.1441 H       
  45 H45            0.6364     4.6079    -0.2276 H       
  46 H46            1.6754     7.8272     3.0045 H       
  47 H47            0.4756     6.9684     4.0213 H       
  48 H48            1.9134     5.1566     4.4030 H       
  49 H49            3.1861     6.3624     4.0404 H       
  50 H50            4.7449     1.4940    -0.2853 H       
  51 H51            6.1940     3.0918     0.7829 H       
  52 H52            3.2849     5.7294    -0.9692 H       
  53 H53            7.8564     4.8799     0.7145 H       
  54 H54            4.9474     7.5174    -1.0375 H       
@<TRIPOS>BOND
   1    1   12 1
   2    1   22 1
   3    2   13 1
   4    2   21 1
   5    3   14 2
   6    4   15 2
   7    5   29 2
   8    6   19 1
   9    6   22 1
  10    6   23 1
  11    7    8 1
  12    7   23 1
  13    7   50 1
  14    8   22 2
  15    9   10 1
  16    9   11 1
  17    9   16 1
  18    9   17 1
  19   10   14 1
  20   10   30 1
  21   10   31 1
  22   11   15 1
  23   11   32 1
  24   11   33 1
  25   12   14 1
  26   12   15 1
  27   12   34 1
  28   13   18 1
  29   13   19 1
  30   13   35 1
  31   16   36 1
  32   16   37 1
  33   16   38 1
  34   17   39 1
  35   17   40 1
  36   17   41 1
  37   18   20 1
  38   18   42 1
  39   18   43 1
  40   19   44 1
  41   19   45 1
  42   20   21 1
  43   20   46 1
  44   20   47 1
  45   21   48 1
  46   21   49 1
  47   23   24 2
  48   24   25 1
  49   24   26 1
  50   25   27 2
  51   25   51 1
  52   26   28 2
  53   26   52 1
  54   27   29 1
  55   27   53 1
  56   28   29 1
  57   28   54 1

#	End of record

#	Name: 5770738
#	Creating user name:	landrgr1
#	Creation time:	28. 01. 2015 13:52

#	Modifying user name:	landrgr1
#	Modification time:	28. 01. 2015 13:52

#	Program:	corina 3.48 0006  22.01.2010

@<TRIPOS>MOLECULE
5770738
  43   46    0    0    0
SMALL
NO_CHARGES


@<TRIPOS>ATOM
   1 S1            -0.0225     1.8057     0.0120 S.3     
   2 O2            -2.3441     0.2498     0.0258 O.2     
   3 O3             2.2724     3.3576    -0.0016 O.3     
   4 O4             6.3976     2.7599    -0.0447 O.2     
   5 N5            -1.6400    -1.8540     0.0078 N.am    
   6 N6             3.8815     1.9095    -0.0247 N.pl3   
   7 N7             2.6516     1.2347    -0.0166 N.2     
   8 C8            -3.0090    -2.3960     0.0179 C.3     
   9 C9            -3.2286    -3.1409    -1.2979 C.3     
  10 C10           -0.5348    -2.8182    -0.0141 C.3     
  11 C11           -2.0707    -4.0568    -1.5953 C.ar    
  12 C12           -0.8313    -3.9076    -1.0140 C.ar    
  13 C13           -1.4117    -0.5257     0.0127 C.2     
  14 C14           -2.2825    -5.0897    -2.5002 C.ar    
  15 C15            0.1960    -4.7808    -1.3436 C.ar    
  16 C16           -1.2618    -5.9593    -2.8242 C.ar    
  17 C17           -0.0162    -5.8035    -2.2455 C.ar    
  18 C18            0.0021    -0.0041     0.0020 C.3     
  19 C19            1.7084     2.1353    -0.0028 C.2     
  20 C20            3.6061     3.2217    -0.0151 C.2     
  21 C21            4.5838     4.3083    -0.0193 C.2     
  22 C22            5.9705     4.0220    -0.0345 C.2     
  23 C23            4.1576     5.6433    -0.0141 C.2     
  24 C24            6.8883     5.0804    -0.0382 C.2     
  25 C25            5.0743     6.6546    -0.0185 C.2     
  26 C26            6.4361     6.3792    -0.0272 C.2     
  27 H27           -3.1271    -3.0838     0.8553 H       
  28 H28           -3.7277    -1.5811     0.1048 H       
  29 H29           -4.1430    -3.7301    -1.2279 H       
  30 H30           -3.3304    -2.4174    -2.1067 H       
  31 H31            0.3862    -2.3079    -0.2960 H       
  32 H32           -0.4168    -3.2573     0.9765 H       
  33 H33           -3.2549    -5.2130    -2.9536 H       
  34 H34            1.1690    -4.6587    -0.8910 H       
  35 H35           -1.4354    -6.7597    -3.5281 H       
  36 H36            0.7876    -6.4790    -2.4984 H       
  37 H37            0.5123    -0.3556    -0.8948 H       
  38 H38            0.5293    -0.3651     0.8851 H       
  39 H39            4.7627     1.5042    -0.0353 H       
  40 H40            3.1022     5.8724    -0.0070 H       
  41 H41            7.9489     4.8768    -0.0494 H       
  42 H42            4.7372     7.6806    -0.0149 H       
  43 H43            7.1463     7.1929    -0.0297 H       
@<TRIPOS>BOND
   1    1   18 1
   2    1   19 1
   3    2   13 2
   4    3   19 1
   5    3   20 1
   6    4   22 2
   7    5    8 1
   8    5   10 1
   9    5   13 am
  10    6    7 1
  11    6   20 1
  12    6   39 1
  13    7   19 2
  14    8    9 1
  15    8   27 1
  16    8   28 1
  17    9   11 1
  18    9   29 1
  19    9   30 1
  20   10   12 1
  21   10   31 1
  22   10   32 1
  23   11   12 ar
  24   11   14 ar
  25   12   15 ar
  26   13   18 1
  27   14   16 ar
  28   14   33 1
  29   15   17 ar
  30   15   34 1
  31   16   17 ar
  32   16   35 1
  33   17   36 1
  34   18   37 1
  35   18   38 1
  36   20   21 2
  37   21   22 1
  38   21   23 1
  39   22   24 1
  40   23   25 2
  41   23   40 1
  42   24   26 2
  43   24   41 1
  44   25   26 1
  45   25   42 1
  46   26   43 1

#	End of record

#	Name: 5770470
#	Creating user name:	landrgr1
#	Creation time:	28. 01. 2015 13:52

#	Modifying user name:	landrgr1
#	Modification time:	28. 01. 2015 13:52

#	Program:	corina 3.48 0006  22.01.2010

@<TRIPOS>MOLECULE
5770470
  44   48    0    0    0
SMALL
NO_CHARGES


@<TRIPOS>ATOM
   1 S1            -0.0225     1.8057     0.0120 S.3     
   2 F2             9.3070     2.8291    -0.0743 F       
   3 O3            -2.3442     0.2498     0.0258 O.2     
   4 N4            -1.6400    -1.8540     0.0078 N.am    
   5 N5             4.1749     4.7976    -0.0125 N.pl3   
   6 N6             2.1310     3.3925    -0.0001 N.ar    
   7 N7             3.8398     1.3115    -0.0267 N.ar    
   8 N8             2.5653     1.1190    -0.0160 N.ar    
   9 C9            -2.9656    -2.4785     0.0171 C.3     
  10 C10           -2.6981    -3.9924    -0.0004 C.3     
  11 C11           -1.1909    -4.1126    -0.0189 C.ar    
  12 C12           -0.6467    -2.8380    -0.0130 C.ar    
  13 C13           -3.7270    -2.0887     1.2856 C.3     
  14 C14           -1.4117    -0.5257     0.0127 C.2     
  15 C15           -0.3710    -5.2242    -0.0389 C.ar    
  16 C16            0.7416    -2.6936    -0.0276 C.ar    
  17 C17            1.0034    -5.0733    -0.0533 C.ar    
  18 C18            1.5561    -3.8060    -0.0476 C.ar    
  19 C19            0.0021    -0.0041     0.0020 C.3     
  20 C20            5.6845     3.1126    -0.0360 C.ar    
  21 C21            5.5307     4.5070    -0.0273 C.ar    
  22 C22            4.3254     2.5443    -0.0256 C.ar    
  23 C23            3.4376     3.6395    -0.0112 C.ar    
  24 C24            1.7084     2.1353    -0.0028 C.ar    
  25 C25            6.9593     2.5507    -0.0514 C.ar    
  26 C26            6.6611     5.3172    -0.0346 C.ar    
  27 C27            8.0694     3.3707    -0.0594 C.ar    
  28 C28            7.9177     4.7506    -0.0503 C.ar    
  29 H29           -3.5286    -2.1838    -0.8685 H       
  30 H30           -3.1059    -4.4609     0.8953 H       
  31 H31           -3.1265    -4.4439    -0.8953 H       
  32 H32           -3.8437    -1.0056     1.3209 H       
  33 H33           -4.7099    -2.5600     1.2786 H       
  34 H34           -3.1700    -2.4229     2.1609 H       
  35 H35           -0.8044    -6.2134    -0.0430 H       
  36 H36            1.1797    -1.7065    -0.0236 H       
  37 H37            1.6435    -5.9430    -0.0685 H       
  38 H38            0.5123    -0.3556    -0.8948 H       
  39 H39            0.5293    -0.3651     0.8851 H       
  40 H40            2.6295    -3.6870    -0.0591 H       
  41 H41            3.8005     5.6923    -0.0005 H       
  42 H42            7.0783     1.4773    -0.0578 H       
  43 H43            6.5543     6.3919    -0.0284 H       
  44 H44            8.7914     5.3854    -0.0559 H       
@<TRIPOS>BOND
   1    1   19 1
   2    1   24 1
   3    2   27 1
   4    3   14 2
   5    4    9 1
   6    4   12 1
   7    4   14 am
   8    5   21 1
   9    5   23 1
  10    5   41 1
  11    6   23 ar
  12    6   24 ar
  13    7    8 ar
  14    7   22 ar
  15    8   24 ar
  16    9   10 1
  17    9   13 1
  18    9   29 1
  19   10   11 1
  20   10   30 1
  21   10   31 1
  22   11   12 ar
  23   11   15 ar
  24   12   16 ar
  25   13   32 1
  26   13   33 1
  27   13   34 1
  28   14   19 1
  29   15   17 ar
  30   15   35 1
  31   16   18 ar
  32   16   36 1
  33   17   18 ar
  34   17   37 1
  35   18   40 1
  36   19   38 1
  37   19   39 1
  38   20   21 ar
  39   20   22 1
  40   20   25 ar
  41   21   26 ar
  42   22   23 ar
  43   25   27 ar
  44   25   42 1
  45   26   28 ar
  46   26   43 1
  47   27   28 ar
  48   28   44 1

#	End of record

#	Name: 5769715
#	Creating user name:	landrgr1
#	Creation time:	28. 01. 2015 13:52

#	Modifying user name:	landrgr1
#	Modification time:	28. 01. 2015 13:52

#	Program:	corina 3.48 0006  22.01.2010

@<TRIPOS>MOLECULE
5769715
  54   57    0    0    0
SMALL
NO_CHARGES


@<TRIPOS>ATOM
   1 S1             0.0171     1.7491    -0.1632 S.3     
   2 O2             3.8121     0.1535    -1.5211 O.2     
   3 O3             1.6837    -1.4645     0.6939 O.2     
   4 O4             2.4010     2.9450     0.1653 O.2     
   5 O5             1.0990    -7.0502    -2.3732 O.3     
   6 O6            -0.6116    -5.6529    -2.3044 O.2     
   7 N7             5.7014    -0.0690    -0.3796 N.am    
   8 N8             2.1904     0.6858     0.4702 N.am    
   9 N9             0.0209    -4.3315    -0.1311 N.pl3   
  10 C10            7.2667    -2.5739    -0.9286 C.3     
  11 C11            6.8234    -2.4541     0.5262 C.3     
  12 C12            6.4020    -1.8668    -1.8857 C.3     
  13 C13            7.3749    -1.1785     1.1138 C.3     
  14 C14            6.4200    -0.3442    -1.6036 C.3     
  15 C15            6.3595    -0.0343     0.9412 C.3     
  16 C16            4.3770     0.1710    -0.4480 C.2     
  17 C17            3.5979     0.4613     0.8090 C.3     
  18 C18           -0.8551    -2.2978     0.1082 C.2     
  19 C19           -1.7106    -3.2652     0.8216 C.ar    
  20 C20           -1.1107    -4.5211     0.6355 C.ar    
  21 C21            1.3378    -0.3240     0.4429 C.2     
  22 C22           -0.0014    -0.0053     0.1048 C.2     
  23 C23            0.1689    -3.0182    -0.4406 C.2     
  24 C24           -1.0620    -0.8531     0.0076 C.2     
  25 C25            1.7479     1.9187     0.1836 C.2     
  26 C26            0.9368    -5.3966    -0.5470 C.3     
  27 C27           -2.8823    -3.1543     1.5650 C.ar    
  28 C28           -1.6981    -5.6479     1.2009 C.ar    
  29 C29           -3.4493    -4.2825     2.1173 C.ar    
  30 C30           -2.8577    -5.5237     1.9352 C.ar    
  31 C31            0.4177    -6.0423    -1.8058 C.2     
  32 H32            8.2777    -2.1761    -1.0162 H       
  33 H33            7.2895    -3.6299    -1.1976 H       
  34 H34            5.7346    -2.4356     0.5743 H       
  35 H35            7.1983    -3.3070     1.0920 H       
  36 H36            6.7596    -2.0503    -2.8988 H       
  37 H37            5.3816    -2.2388    -1.7931 H       
  38 H38            7.5757    -1.3266     2.1748 H       
  39 H39            8.3030    -0.9180     0.6051 H       
  40 H40            5.9444     0.1837    -2.4302 H       
  41 H41            7.4513    -0.0059    -1.5029 H       
  42 H42            6.8773     0.9183     1.0537 H       
  43 H43            5.5991    -0.1158     1.7178 H       
  44 H44            4.0025     1.3520     1.2896 H       
  45 H45            3.6771    -0.3865     1.4894 H       
  46 H46            0.9735    -2.6052    -1.0308 H       
  47 H47           -2.0561    -0.4593    -0.1438 H       
  48 H48            1.9237    -4.9740    -0.7358 H       
  49 H49            1.0069    -6.1445     0.2427 H       
  50 H50           -3.3444    -2.1888     1.7088 H       
  51 H51           -1.2462    -6.6193     1.0644 H       
  52 H52           -4.3584    -4.1997     2.6946 H       
  53 H53           -3.3105    -6.4013     2.3725 H       
  54 H54            0.7266    -7.4326    -3.1795 H       
@<TRIPOS>BOND
   1    1   22 1
   2    1   25 1
   3    2   16 2
   4    3   21 2
   5    4   25 2
   6    5   31 1
   7    5   54 1
   8    6   31 2
   9    7   14 1
  10    7   15 1
  11    7   16 am
  12    8   17 1
  13    8   21 am
  14    8   25 am
  15    9   20 1
  16    9   23 1
  17    9   26 1
  18   10   11 1
  19   10   12 1
  20   10   32 1
  21   10   33 1
  22   11   13 1
  23   11   34 1
  24   11   35 1
  25   12   14 1
  26   12   36 1
  27   12   37 1
  28   13   15 1
  29   13   38 1
  30   13   39 1
  31   14   40 1
  32   14   41 1
  33   15   42 1
  34   15   43 1
  35   16   17 1
  36   17   44 1
  37   17   45 1
  38   18   19 1
  39   18   23 2
  40   18   24 1
  41   19   20 ar
  42   19   27 ar
  43   20   28 ar
  44   21   22 1
  45   22   24 2
  46   23   46 1
  47   24   47 1
  48   26   31 1
  49   26   48 1
  50   26   49 1
  51   27   29 ar
  52   27   50 1
  53   28   30 ar
  54   28   51 1
  55   29   30 ar
  56   29   52 1
  57   30   53 1

#	End of record

#	Name: 5769556
#	Creating user name:	landrgr1
#	Creation time:	28. 01. 2015 13:52

#	Modifying user name:	landrgr1
#	Modification time:	28. 01. 2015 13:52

#	Program:	corina 3.48 0006  22.01.2010

@<TRIPOS>MOLECULE
5769556
  40   43    0    0    0
SMALL
NO_CHARGES


@<TRIPOS>ATOM
   1 S1            -0.0218     1.7591     0.0117 S.3     
   2 O2             1.6333     6.6544    -0.0624 O.3     
   3 O3             0.5292     4.2545     0.0188 O.2     
   4 O4             2.8378    10.0170     1.8605 O.2     
   5 N5             2.3929     3.0511    -0.0044 N.am    
   6 N6             2.2009     7.6960     0.7081 N.pl3   
   7 N7             4.7726     0.2170    -0.0411 N.1     
   8 C8             1.2599    -1.9840    -0.0206 C.3     
   9 C9            -0.1635    -2.3852    -0.4565 C.3     
  10 C10            1.2529    -0.4580    -0.0122 C.2     
  11 C11           -0.9854    -1.1647     0.0047 C.3     
  12 C12            0.0021    -0.0041     0.0020 C.2     
  13 C13            2.2366     0.6203    -0.0159 C.2     
  14 C14            2.5204     5.5214     0.0070 C.3     
  15 C15            1.6758     1.8627    -0.0039 C.2     
  16 C16            3.2294     5.7357     1.3642 C.3     
  17 C17            3.1211     7.2352     1.5679 C.2     
  18 C18            1.7418     4.2311     0.0076 C.2     
  19 C19            3.8483     7.9979     2.4852 C.2     
  20 C20            3.6507     0.3954    -0.0300 C.1     
  21 C21            3.6462     9.4492     2.5820 C.2     
  22 C22            4.7898     7.3894     3.3441 C.2     
  23 C23            4.4019    10.1718     3.5213 C.2     
  24 C24            5.4872     8.1484     4.2301 C.2     
  25 C25            5.2976     9.5247     4.3163 C.2     
  26 H26            1.4730    -2.3676     0.9772 H       
  27 H27            1.9942    -2.3558    -0.7353 H       
  28 H28           -0.2206    -2.5084    -1.5380 H       
  29 H29           -0.4882    -3.2908     0.0559 H       
  30 H30           -1.8002    -0.9708    -0.6928 H       
  31 H31           -1.3758    -1.3281     1.0092 H       
  32 H32            3.2387     5.5412    -0.8126 H       
  33 H33            2.7112     5.1997     2.1593 H       
  34 H34            4.2736     5.4284     1.3069 H       
  35 H35            3.3627     3.0324    -0.0134 H       
  36 H36            1.9548     8.6305     0.6243 H       
  37 H37            4.9552     6.3232     3.2972 H       
  38 H38            4.2723    11.2402     3.6119 H       
  39 H39            6.2046     7.6727     4.8824 H       
  40 H40            5.8721    10.0921     5.0335 H       
@<TRIPOS>BOND
   1    1   12 1
   2    1   15 1
   3    2    6 1
   4    2   14 1
   5    3   18 2
   6    4   21 2
   7    5   15 1
   8    5   18 am
   9    5   35 1
  10    6   17 1
  11    6   36 1
  12    7   20 3
  13    8    9 1
  14    8   10 1
  15    8   26 1
  16    8   27 1
  17    9   11 1
  18    9   28 1
  19    9   29 1
  20   10   12 2
  21   10   13 1
  22   11   12 1
  23   11   30 1
  24   11   31 1
  25   13   15 2
  26   13   20 1
  27   14   16 1
  28   14   18 1
  29   14   32 1
  30   16   17 1
  31   16   33 1
  32   16   34 1
  33   17   19 2
  34   19   21 1
  35   19   22 1
  36   21   23 1
  37   22   24 2
  38   22   37 1
  39   23   25 2
  40   23   38 1
  41   24   25 1
  42   24   39 1
  43   25   40 1

#	End of record

#	Name: 5769321
#	Creating user name:	landrgr1
#	Creation time:	28. 01. 2015 13:52

#	Modifying user name:	landrgr1
#	Modification time:	28. 01. 2015 13:52

#	Program:	corina 3.48 0006  22.01.2010

@<TRIPOS>MOLECULE
5769321
  46   48    0    0    0
SMALL
NO_CHARGES


@<TRIPOS>ATOM
   1 O1             0.7315     1.1202     1.3322 O.3     
   2 O2            -1.7468     0.1619     0.6191 O.3     
   3 O3            -0.6538     3.8179     6.8315 O.2     
   4 O4            -1.0012     1.7864     7.2821 O.2     
   5 N5             0.0279     0.6139     3.4808 N.ar    
   6 N6            -0.6714     2.6494     6.4883 N.pl3   
   7 N7             0.9416    -7.4640    -1.0699 N.1     
   8 C8             0.2698    -2.8697     0.3555 C.ar    
   9 C9             2.2517    -4.1692    -1.2094 C.ar    
  10 C10           -0.6775    -0.6776     0.6533 C.ar    
  11 C11           -0.8339    -2.0084     0.3196 C.ar    
  12 C12            0.5787    -0.1917     1.0148 C.ar    
  13 C13            0.1109    -4.2851     0.0016 C.2     
  14 C14            1.0941    -4.9297    -0.6848 C.2     
  15 C15            1.5270    -2.3748     0.7247 C.ar    
  16 C16            1.6740    -1.0447     1.0508 C.ar    
  17 C17            4.4161    -2.7482    -2.1908 C.ar    
  18 C18            3.5302    -4.4013    -0.7019 C.ar    
  19 C19            2.0689    -3.2221    -2.2171 C.ar    
  20 C20            4.6047    -3.6900    -1.1950 C.ar    
  21 C21            3.1514    -2.5173    -2.7020 C.ar    
  22 C22            5.5940    -1.9745    -2.7246 C.3     
  23 C23            0.3927     1.5160     2.5848 C.ar    
  24 C24            0.4327     2.8652     2.9146 C.ar    
  25 C25            1.0091    -6.3429    -0.8996 C.1     
  26 C26            0.0852     3.2556     4.1958 C.ar    
  27 C27           -0.2920     2.2780     5.1066 C.ar    
  28 C28           -3.0011    -0.4008     0.2291 C.3     
  29 C29           -0.3089     0.9557     4.7099 C.ar    
  30 H30           -1.8046    -2.3839     0.0313 H       
  31 H31           -0.7861    -4.8153     0.2857 H       
  32 H32            2.3806    -3.0358     0.7540 H       
  33 H33            2.6447    -0.6632     1.3314 H       
  34 H34            3.6786    -5.1360     0.0757 H       
  35 H35            1.0822    -3.0412    -2.6171 H       
  36 H36            5.5944    -3.8661    -0.8003 H       
  37 H37            3.0105    -1.7806    -3.4790 H       
  38 H38            6.0302    -2.5118    -3.5667 H       
  39 H39            5.2626    -0.9898    -3.0543 H       
  40 H40            6.3412    -1.8623    -1.9390 H       
  41 H41            0.7314     3.5992     2.1808 H       
  42 H42            0.1071     4.2971     4.4809 H       
  43 H43           -2.9182    -0.8106    -0.7775 H       
  44 H44           -3.2746    -1.1953     0.9234 H       
  45 H45           -3.7673     0.3743     0.2438 H       
  46 H46           -0.6019     0.1914     5.4145 H       
@<TRIPOS>BOND
   1    1   12 1
   2    1   23 1
   3    2   10 1
   4    2   28 1
   5    3    6 2
   6    4    6 2
   7    5   23 ar
   8    5   29 ar
   9    6   27 1
  10    7   25 3
  11    8   11 ar
  12    8   13 1
  13    8   15 ar
  14    9   14 1
  15    9   18 ar
  16    9   19 ar
  17   10   11 ar
  18   10   12 ar
  19   11   30 1
  20   12   16 ar
  21   13   14 2
  22   13   31 1
  23   14   25 1
  24   15   16 ar
  25   15   32 1
  26   16   33 1
  27   17   20 ar
  28   17   21 ar
  29   17   22 1
  30   18   20 ar
  31   18   34 1
  32   19   21 ar
  33   19   35 1
  34   20   36 1
  35   21   37 1
  36   22   38 1
  37   22   39 1
  38   22   40 1
  39   23   24 ar
  40   24   26 ar
  41   24   41 1
  42   26   27 ar
  43   26   42 1
  44   27   29 ar
  45   28   43 1
  46   28   44 1
  47   28   45 1
  48   29   46 1

#	End of record

#	Name: 5769057
#	Creating user name:	landrgr1
#	Creation time:	28. 01. 2015 13:52

#	Modifying user name:	landrgr1
#	Modification time:	28. 01. 2015 13:52

#	Program:	corina 3.48 0006  22.01.2010

@<TRIPOS>MOLECULE
5769057
  38   41    0    0    0
SMALL
NO_CHARGES


@<TRIPOS>ATOM
   1 S1            -0.0218     1.7587     0.0117 S.3     
   2 O2             4.4421     1.5637    -0.0316 O.3     
   3 O3             4.2143    -0.6544    -0.0393 O.2     
   4 O4             9.2668     8.3739    -0.0436 O.3     
   5 N5             2.5549     2.9232    -0.0076 N.2     
   6 C6             1.2365    -1.9975    -0.0204 C.3     
   7 C7            -0.1898    -2.3832    -0.4592 C.3     
   8 C8             1.2456    -0.4689    -0.0120 C.2     
   9 C9            -0.9990    -1.1557     0.0044 C.3     
  10 C10            0.0021    -0.0041     0.0020 C.2     
  11 C11            2.2687     0.5768    -0.0162 C.2     
  12 C12            1.7303     1.8569    -0.0045 C.2     
  13 C13            3.6914     0.4455    -0.0303 C.2     
  14 C14            3.8600     2.7778    -0.0212 C.2     
  15 C15            4.6808     3.9341    -0.0230 C.2     
  16 C16            6.0253     3.8078    -0.0350 C.2     
  17 C17            6.8764     5.0066    -0.0369 C.ar    
  18 C18            8.2700     4.8784    -0.0493 C.ar    
  19 C19            6.2957     6.2800    -0.0322 C.ar    
  20 C20            8.4808     7.2667    -0.0414 C.ar    
  21 C21            9.0625     6.0045    -0.0515 C.ar    
  22 C22            7.0973     7.3996    -0.0344 C.ar    
  23 C23            8.6041     9.6399    -0.0328 C.3     
  24 H24            1.4434    -2.3832     0.9779 H       
  25 H25            1.9682    -2.3770    -0.7335 H       
  26 H26           -0.2468    -2.5029    -1.5411 H       
  27 H27           -0.5244    -3.2868     0.0504 H       
  28 H28           -1.8125    -0.9525    -0.6921 H       
  29 H29           -1.3899    -1.3164     1.0091 H       
  30 H30            4.2308     4.9159    -0.0148 H       
  31 H31            6.4753     2.8260    -0.0432 H       
  32 H32            8.7230     3.8981    -0.0568 H       
  33 H33            5.2207     6.3844    -0.0271 H       
  34 H34           10.1380     5.9066    -0.0607 H       
  35 H35            6.6502     8.3827    -0.0308 H       
  36 H36            7.9728     9.7271    -0.9171 H       
  37 H37            7.9880     9.7199     0.8628 H       
  38 H38            9.3461    10.4384    -0.0359 H       
@<TRIPOS>BOND
   1    1   10 1
   2    1   12 1
   3    2   13 1
   4    2   14 1
   5    3   13 2
   6    4   20 1
   7    4   23 1
   8    5   12 1
   9    5   14 2
  10    6    7 1
  11    6    8 1
  12    6   24 1
  13    6   25 1
  14    7    9 1
  15    7   26 1
  16    7   27 1
  17    8   10 2
  18    8   11 1
  19    9   10 1
  20    9   28 1
  21    9   29 1
  22   11   12 2
  23   11   13 1
  24   14   15 1
  25   15   16 2
  26   15   30 1
  27   16   17 1
  28   16   31 1
  29   17   18 ar
  30   17   19 ar
  31   18   21 ar
  32   18   32 1
  33   19   22 ar
  34   19   33 1
  35   20   21 ar
  36   20   22 ar
  37   21   34 1
  38   22   35 1
  39   23   36 1
  40   23   37 1
  41   23   38 1

#	End of record

#	Name: 5768891
#	Creating user name:	landrgr1
#	Creation time:	28. 01. 2015 13:52

#	Modifying user name:	landrgr1
#	Modification time:	28. 01. 2015 13:52

#	Program:	corina 3.48 0006  22.01.2010

@<TRIPOS>MOLECULE
5768891
  47   49    0    0    0
SMALL
NO_CHARGES


@<TRIPOS>ATOM
   1 O1            -1.8888     2.4127    -1.1875 O.2     
   2 O2            -3.3393     2.2382    -3.6909 O.2     
   3 O3             1.0039     1.5288    -0.9150 O.3     
   4 O4            -2.9327    -1.7656    -5.1597 O.3     
   5 O5            -4.5117     1.4131    -9.0503 O.3     
   6 N6            -1.4924     0.2071    -1.5433 N.am    
   7 N7             1.6637    -2.2946    -4.4009 N.ar    
   8 C8            -1.8479    -0.7542    -2.5911 C.3     
   9 C9            -2.6671     0.0013    -3.6119 C.2     
  10 C10           -0.6978    -0.0912    -0.3492 C.3     
  11 C11           -0.5998    -1.3017    -3.2340 C.ar    
  12 C12           -2.0080     1.4074    -1.8575 C.2     
  13 C13           -2.7558     1.3217    -3.1414 C.2     
  14 C14           -3.2168    -0.5041    -4.7718 C.2     
  15 C15            0.7839     0.1416    -0.6513 C.3     
  16 C16           -0.5065    -2.6425    -3.5747 C.ar    
  17 C17            0.4825    -0.4766    -3.4993 C.ar    
  18 C18           -4.1142     0.3331    -5.5876 C.ar    
  19 C19            0.6538    -3.1086    -4.1633 C.ar    
  20 C20            1.6102    -1.0141    -4.0903 C.ar    
  21 C21           -3.8840     0.4796    -6.9582 C.ar    
  22 C22           -5.2034     0.9800    -4.9944 C.ar    
  23 C23           -4.7320     1.2674    -7.7172 C.ar    
  24 C24           -6.0406     1.7619    -5.7617 C.ar    
  25 C25           -5.8075     1.9095    -7.1174 C.ar    
  26 C26            2.3633     1.8557    -1.2105 C.3     
  27 C27           -5.4260     2.2405    -9.7724 C.3     
  28 H28           -2.4374    -1.5672    -2.1673 H       
  29 H29           -1.0092     0.5610     0.4667 H       
  30 H30           -0.8508    -1.1314    -0.0615 H       
  31 H31            1.0733    -0.4444    -1.5236 H       
  32 H32            1.3821    -0.1644     0.2069 H       
  33 H33           -1.3304    -3.3140    -3.3830 H       
  34 H34            0.4445     0.5730    -3.2476 H       
  35 H35            0.7342    -4.1516    -4.4320 H       
  36 H36            2.4574    -0.3781    -4.3002 H       
  37 H37           -3.0471    -0.0199    -7.4236 H       
  38 H38           -5.3886     0.8667    -3.9365 H       
  39 H39           -3.3637    -2.0302    -5.9838 H       
  40 H40           -6.8816     2.2607    -5.3029 H       
  41 H41           -6.4671     2.5235    -7.7127 H       
  42 H42            2.9943     1.5852    -0.3639 H       
  43 H43            2.6855     1.3052    -2.0944 H       
  44 H44            2.4469     2.9261    -1.3986 H       
  45 H45           -5.4063     3.2494    -9.3603 H       
  46 H46           -5.1365     2.2713   -10.8228 H       
  47 H47           -6.4328     1.8319    -9.6848 H       
@<TRIPOS>BOND
   1    1   12 2
   2    2   13 2
   3    3   15 1
   4    3   26 1
   5    4   14 1
   6    4   39 1
   7    5   23 1
   8    5   27 1
   9    6    8 1
  10    6   10 1
  11    6   12 am
  12    7   19 ar
  13    7   20 ar
  14    8    9 1
  15    8   11 1
  16    8   28 1
  17    9   13 1
  18    9   14 2
  19   10   15 1
  20   10   29 1
  21   10   30 1
  22   11   16 ar
  23   11   17 ar
  24   12   13 1
  25   14   18 1
  26   15   31 1
  27   15   32 1
  28   16   19 ar
  29   16   33 1
  30   17   20 ar
  31   17   34 1
  32   18   21 ar
  33   18   22 ar
  34   19   35 1
  35   20   36 1
  36   21   23 ar
  37   21   37 1
  38   22   24 ar
  39   22   38 1
  40   23   25 ar
  41   24   25 ar
  42   24   40 1
  43   25   41 1
  44   26   42 1
  45   26   43 1
  46   26   44 1
  47   27   45 1
  48   27   46 1
  49   27   47 1

#	End of record

#	Name: 5768774
#	Creating user name:	landrgr1
#	Creation time:	28. 01. 2015 13:52

#	Modifying user name:	landrgr1
#	Modification time:	28. 01. 2015 13:52

#	Program:	corina 3.48 0006  22.01.2010

@<TRIPOS>MOLECULE
5768774
  43   46    0    0    0
SMALL
NO_CHARGES


@<TRIPOS>ATOM
   1 S1             0.2711     1.3400     0.0559 S.3     
   2 O2            -2.4331    -0.3076    -0.0796 O.3     
   3 O3            -1.4362    -2.1020    -0.9326 O.2     
   4 N4            -5.8299    -6.5675     0.3947 N.pl3   
   5 N5            -4.8456    -4.7139    -0.2455 N.2     
   6 N6            -9.4408    -5.7439     0.7538 N.1     
   7 C7            -4.5058    -6.8755     0.1469 C.ar    
   8 C8            -3.8929    -5.6773    -0.2613 C.ar    
   9 C9            -5.9890    -5.2306     0.1398 C.2     
  10 C10           -3.7579    -8.0419     0.2243 C.ar    
  11 C11           -2.4175    -8.0175    -0.1001 C.ar    
  12 C12           -2.5320    -5.6771    -0.5853 C.ar    
  13 C13           -1.8125    -6.8352    -0.5025 C.ar    
  14 C14           -7.2537    -4.4852     0.2772 C.2     
  15 C15           -5.9967    -2.3877     0.0905 C.ar    
  16 C16           -7.2620    -3.1261     0.1510 C.2     
  17 C17           -1.6043    -9.2835    -0.0164 C.3     
  18 C18           -5.8301    -1.3525    -0.8394 C.ar    
  19 C19           -4.9513    -2.7105     0.9662 C.ar    
  20 C20           -3.6047    -0.9913    -0.0236 C.ar    
  21 C21           -4.6404    -0.6627    -0.8912 C.ar    
  22 C22           -3.7660    -2.0139     0.9047 C.ar    
  23 C23           -8.4733    -5.1871     0.5429 C.1     
  24 C24           -1.3386    -0.9614    -0.5211 C.2     
  25 C25           -0.0338    -0.2983    -0.5050 C.2     
  26 C26            1.1437    -0.8535    -0.9246 C.2     
  27 C27            2.2186    -0.0067    -0.7991 C.2     
  28 C28            1.9350     1.2004    -0.2948 C.2     
  29 H29           -6.5188    -7.1833     0.6898 H       
  30 H30           -4.2233    -8.9647     0.5376 H       
  31 H31           -2.0511    -4.7629    -0.9004 H       
  32 H32           -0.7620    -6.8309    -0.7532 H       
  33 H33           -8.2006    -2.5947     0.0957 H       
  34 H34           -1.6410    -9.8028    -0.9741 H       
  35 H35           -0.5702    -9.0359     0.2232 H       
  36 H36           -2.0135    -9.9274     0.7620 H       
  37 H37           -6.6337    -1.0969    -1.5142 H       
  38 H38           -5.0756    -3.5044     1.6878 H       
  39 H39           -4.5109     0.1353    -1.6073 H       
  40 H40           -2.9596    -2.2618     1.5790 H       
  41 H41            1.2210    -1.8574    -1.3153 H       
  42 H42            3.2191    -0.2940    -1.0867 H       
  43 H43            2.6625     1.9817    -0.1313 H       
@<TRIPOS>BOND
   1    1   25 1
   2    1   28 1
   3    2   20 1
   4    2   24 1
   5    3   24 2
   6    4    7 1
   7    4    9 1
   8    4   29 1
   9    5    8 1
  10    5    9 2
  11    6   23 3
  12    7    8 ar
  13    7   10 ar
  14    8   12 ar
  15    9   14 1
  16   10   11 ar
  17   10   30 1
  18   11   13 ar
  19   11   17 1
  20   12   13 ar
  21   12   31 1
  22   13   32 1
  23   14   16 2
  24   14   23 1
  25   15   16 1
  26   15   18 ar
  27   15   19 ar
  28   16   33 1
  29   17   34 1
  30   17   35 1
  31   17   36 1
  32   18   21 ar
  33   18   37 1
  34   19   22 ar
  35   19   38 1
  36   20   21 ar
  37   20   22 ar
  38   21   39 1
  39   22   40 1
  40   24   25 1
  41   25   26 2
  42   26   27 1
  43   26   41 1
  44   27   28 2
  45   27   42 1
  46   28   43 1

#	End of record

#	Name: 5767168
#	Creating user name:	landrgr1
#	Creation time:	28. 01. 2015 13:52

#	Modifying user name:	landrgr1
#	Modification time:	28. 01. 2015 13:52

#	Program:	corina 3.48 0006  22.01.2010

@<TRIPOS>MOLECULE
5767168
  49   51    0    0    0
SMALL
NO_CHARGES


@<TRIPOS>ATOM
   1 S1             1.7449    -0.3875    -1.5162 S.o2    
   2 O2            -0.1026     2.8484    -4.4288 O.3     
   3 O3             1.7860    -1.7405    -1.9484 O.2     
   4 O4             2.8721     0.4768    -1.5592 O.2     
   5 O5             0.4324     4.9898    -4.4338 O.2     
   6 N6             0.5558     0.3504    -2.4015 N.am    
   7 N7             1.7367     6.1766    -5.7858 N.am    
   8 N8             0.3653     5.7020    -9.0701 N.1     
   9 C9             0.2380     1.7614    -2.1687 C.3     
  10 C10           -0.5883     2.2859    -3.3147 C.2     
  11 C11            1.2044    -0.4171     0.1606 C.ar    
  12 C12           -1.9402     2.2645    -3.3822 C.2     
  13 C13           -1.1256     3.2010    -5.2366 C.2     
  14 C14           -2.3045     2.8450    -4.6032 C.2     
  15 C15            0.4722    -1.4907     0.6320 C.ar    
  16 C16            1.5174     0.6307     1.0063 C.ar    
  17 C17            2.5070     6.6993    -4.6547 C.3     
  18 C18            3.5835     7.6228    -5.1640 C.ar    
  19 C19           -1.0139     3.8197    -6.4954 C.2     
  20 C20            0.0481    -1.5139     1.9474 C.ar    
  21 C21            1.0934     0.6074     2.3218 C.ar    
  22 C22           -0.0572     4.8007    -6.7029 C.2     
  23 C23            0.3566    -0.4637     2.7917 C.ar    
  24 C24            0.7150     5.3247    -5.5691 C.2     
  25 C25            3.3233     8.9724    -5.3121 C.ar    
  26 C26            4.8329     7.1213    -5.4777 C.ar    
  27 C27            4.3107     9.8195    -5.7793 C.ar    
  28 C28            5.8203     7.9684    -5.9449 C.ar    
  29 C29            5.5585     9.3171    -6.0980 C.ar    
  30 C30            0.1784     5.3033    -8.0229 C.1     
  31 H31           -0.3251     1.8587    -1.2405 H       
  32 H32            1.1621     2.3347    -2.0949 H       
  33 H33            0.0698    -0.1517    -3.0743 H       
  34 H34           -2.6127     1.8726    -2.6334 H       
  35 H35           -3.3076     2.9865    -4.9778 H       
  36 H36            0.2312    -2.3112    -0.0277 H       
  37 H37            2.0935     1.4672     0.6394 H       
  38 H38            1.8438     7.2482    -3.9861 H       
  39 H39            2.9648     5.8715    -4.1132 H       
  40 H40           -1.6737     3.5302    -7.2999 H       
  41 H41           -0.5245    -2.3523     2.3155 H       
  42 H42            1.3382     1.4258     2.9826 H       
  43 H43            1.9619     6.4435    -6.6907 H       
  44 H44            0.0250    -0.4817     3.8194 H       
  45 H45            2.3484     9.3649    -5.0631 H       
  46 H46            5.0376     6.0678    -5.3575 H       
  47 H47            4.1072    10.8737    -5.8957 H       
  48 H48            6.7965     7.5767    -6.1897 H       
  49 H49            6.3298     9.9789    -6.4634 H       
@<TRIPOS>BOND
   1    1    3 2
   2    1    4 2
   3    1    6 am
   4    1   11 1
   5    2   10 1
   6    2   13 1
   7    5   24 2
   8    6    9 1
   9    6   33 1
  10    7   17 1
  11    7   24 am
  12    7   43 1
  13    8   30 3
  14    9   10 1
  15    9   31 1
  16    9   32 1
  17   10   12 2
  18   11   15 ar
  19   11   16 ar
  20   12   14 1
  21   12   34 1
  22   13   14 2
  23   13   19 1
  24   14   35 1
  25   15   20 ar
  26   15   36 1
  27   16   21 ar
  28   16   37 1
  29   17   18 1
  30   17   38 1
  31   17   39 1
  32   18   25 ar
  33   18   26 ar
  34   19   22 2
  35   19   40 1
  36   20   23 ar
  37   20   41 1
  38   21   23 ar
  39   21   42 1
  40   22   24 1
  41   22   30 1
  42   23   44 1
  43   25   27 ar
  44   25   45 1
  45   26   28 ar
  46   26   46 1
  47   27   29 ar
  48   27   47 1
  49   28   29 ar
  50   28   48 1
  51   29   49 1

#	End of record

#	Name: 5767137
#	Creating user name:	landrgr1
#	Creation time:	28. 01. 2015 13:52

#	Modifying user name:	landrgr1
#	Modification time:	28. 01. 2015 13:52

#	Program:	corina 3.48 0006  22.01.2010

@<TRIPOS>MOLECULE
5767137
  51   54    0    0    0
SMALL
NO_CHARGES


@<TRIPOS>ATOM
   1 F1             2.6852     0.5602     0.2751 F       
   2 F2             1.8426     1.5654     2.1456 F       
   3 F3             3.3252     2.6854     0.8165 F       
   4 O4            -4.1564    -0.6053     0.1643 O.2     
   5 N5            -0.0168     1.3854     0.0097 N.pl3   
   6 N6            -1.7135     3.0419     0.0169 N.2     
   7 N7             0.0021    -0.0041     0.0020 N.pl3   
   8 N8            -4.3518     1.6081     0.1508 N.am    
   9 N9            -7.1205     4.8657    -0.4361 N.pl3   
  10 N10           -7.2886     4.7762     0.9517 N.2     
  11 C11            1.1023     2.3339     0.0041 C.3     
  12 C12            0.5947     3.6400     0.6351 C.3     
  13 C13           -0.6873     4.0886    -0.0677 C.3     
  14 C14           -1.3426     1.7944     0.0353 C.2     
  15 C15            2.2637     1.7743     0.8280 C.3     
  16 C16           -2.1479     0.5678     0.0773 C.2     
  17 C17           -0.3864     4.3741    -1.5165 C.ar    
  18 C18           -1.2676    -0.4815     0.0539 C.2     
  19 C19           -3.6111     0.4822     0.1334 C.2     
  20 C20           -0.1832     5.6752    -1.9369 C.ar    
  21 C21           -0.3081     3.3344    -2.4241 C.ar    
  22 C22           -5.8132     1.5227     0.2068 C.3     
  23 C23            0.0927     5.9371    -3.2658 C.ar    
  24 C24           -0.0321     3.5963    -3.7530 C.ar    
  25 C25           -6.3976     2.9118     0.2158 C.2     
  26 C26            0.1659     4.8979    -4.1744 C.ar    
  27 C27           -6.5721     3.7091    -0.8635 C.2     
  28 C28           -6.8551     3.6048     1.3413 C.2     
  29 C29           -6.2178     3.3666    -2.2877 C.3     
  30 C30           -7.4820     6.0102    -1.2761 C.3     
  31 H31            1.4274     2.5183    -1.0198 H       
  32 H32            0.3899     3.4758     1.6930 H       
  33 H33            1.3557     4.4132     0.5296 H       
  34 H34           -1.0593     4.9963     0.4075 H       
  35 H35            0.8024    -0.5508    -0.0352 H       
  36 H36           -1.5412    -1.5261     0.0740 H       
  37 H37           -0.2404     6.4872    -1.2270 H       
  38 H38           -0.4621     2.3174    -2.0948 H       
  39 H39           -3.9172     2.4750     0.1262 H       
  40 H40           -6.1792     0.9802    -0.6649 H       
  41 H41           -6.1120     0.9970     1.1137 H       
  42 H42            0.2507     6.9538    -3.5944 H       
  43 H43            0.0295     2.7839    -4.4620 H       
  44 H44            0.3811     5.1025    -5.2127 H       
  45 H45           -6.8512     3.2366     2.3566 H       
  46 H46           -5.1933     3.6776    -2.4921 H       
  47 H47           -6.3072     2.2904    -2.4356 H       
  48 H48           -6.8967     3.8842    -2.9655 H       
  49 H49           -6.6344     6.6920    -1.3455 H       
  50 H50           -7.7487     5.6594    -2.2730 H       
  51 H51           -8.3319     6.5308    -0.8347 H       
@<TRIPOS>BOND
   1    1   15 1
   2    2   15 1
   3    3   15 1
   4    4   19 2
   5    5    7 1
   6    5   11 1
   7    5   14 1
   8    6   13 1
   9    6   14 2
  10    7   18 1
  11    7   35 1
  12    8   19 am
  13    8   22 1
  14    8   39 1
  15    9   10 1
  16    9   27 1
  17    9   30 1
  18   10   28 2
  19   11   12 1
  20   11   15 1
  21   11   31 1
  22   12   13 1
  23   12   32 1
  24   12   33 1
  25   13   17 1
  26   13   34 1
  27   14   16 1
  28   16   18 2
  29   16   19 1
  30   17   20 ar
  31   17   21 ar
  32   18   36 1
  33   20   23 ar
  34   20   37 1
  35   21   24 ar
  36   21   38 1
  37   22   25 1
  38   22   40 1
  39   22   41 1
  40   23   26 ar
  41   23   42 1
  42   24   26 ar
  43   24   43 1
  44   25   27 2
  45   25   28 1
  46   26   44 1
  47   27   29 1
  48   28   45 1
  49   29   46 1
  50   29   47 1
  51   29   48 1
  52   30   49 1
  53   30   50 1
  54   30   51 1

#	End of record

#	Name: 5767122
#	Creating user name:	landrgr1
#	Creation time:	28. 01. 2015 13:52

#	Modifying user name:	landrgr1
#	Modification time:	28. 01. 2015 13:52

#	Program:	corina 3.48 0006  22.01.2010

@<TRIPOS>MOLECULE
5767122
  51   54    0    0    0
SMALL
NO_CHARGES


@<TRIPOS>ATOM
   1 S1            -0.0218     1.7546     0.0117 S.3     
   2 F2            -3.3873     1.5258    -3.6519 F       
   3 F3            -4.0464    -0.5869    -3.0853 F       
   4 F4            -2.0792    -0.2648    -4.2013 F       
   5 O5            -6.3188     3.6742    -0.4328 O.2     
   6 N6            -3.1114     0.9458    -0.8880 N.pl3   
   7 N7            -4.1149     1.8988    -1.0207 N.pl3   
   8 N8            -2.2247    -0.3201     0.9115 N.2     
   9 N9            -6.3821     3.0903     1.7089 N.am    
  10 N10           -7.9958     4.2825     5.5713 N.pl3   
  11 N11           -8.8994     3.2593     5.2568 N.2     
  12 C12           -2.2103     0.3921    -1.9042 C.3     
  13 C13           -1.7704    -0.9963    -1.4136 C.3     
  14 C14           -1.2174    -0.8895     0.0081 C.3     
  15 C15           -3.0777     0.5459     0.4423 C.2     
  16 C16           -2.9465     0.2638    -3.2392 C.3     
  17 C17            0.0021    -0.0041     0.0020 C.2     
  18 C18           -4.7334     2.0799     0.2058 C.2     
  19 C19           -4.1406     1.2806     1.1265 C.2     
  20 C20           -5.8615     2.9999     0.4690 C.2     
  21 C21            1.2646    -0.4342    -0.0123 C.2     
  22 C22           -7.4993     4.0014     1.9696 C.3     
  23 C23           -7.8905     3.9137     3.4223 C.2     
  24 C24            2.2216     0.5659    -0.0161 C.2     
  25 C25            1.7362     1.8083    -0.0048 C.2     
  26 C26           -7.3895     4.6669     4.4286 C.2     
  27 C27           -8.8354     3.0391     3.9686 C.2     
  28 C28           -6.3423     5.7426     4.2968 C.3     
  29 C29           -9.6408     2.0193     3.2055 C.3     
  30 C30           -7.7560     4.8410     6.9042 C.3     
  31 H31           -1.3398     1.0379    -2.0199 H       
  32 H32           -2.6263    -1.6711    -1.4201 H       
  33 H33           -0.9970    -1.3864    -2.0752 H       
  34 H34           -0.9383    -1.8824     0.3609 H       
  35 H35           -4.3449     2.3630    -1.8408 H       
  36 H36           -4.4047     1.2010     2.1707 H       
  37 H37            1.5208    -1.4834    -0.0201 H       
  38 H38           -7.1977     5.0224     1.7355 H       
  39 H39           -8.3491     3.7218     1.3469 H       
  40 H40           -6.0171     2.5521     2.4286 H       
  41 H41            3.2810     0.3563    -0.0270 H       
  42 H42            2.3315     2.7094    -0.0060 H       
  43 H43           -5.3525     5.3032     4.4208 H       
  44 H44           -6.4151     6.2017     3.3109 H       
  45 H45           -6.5019     6.5008     5.0634 H       
  46 H46          -10.5719     2.4724     2.8651 H       
  47 H47           -9.0683     1.6747     2.3443 H       
  48 H48           -9.8647     1.1731     3.8550 H       
  49 H49           -6.9604     4.2806     7.3952 H       
  50 H50           -7.4610     5.8863     6.8125 H       
  51 H51           -8.6683     4.7717     7.4967 H       
@<TRIPOS>BOND
   1    1   17 1
   2    1   25 1
   3    2   16 1
   4    3   16 1
   5    4   16 1
   6    5   20 2
   7    6    7 1
   8    6   12 1
   9    6   15 1
  10    7   18 1
  11    7   35 1
  12    8   14 1
  13    8   15 2
  14    9   20 am
  15    9   22 1
  16    9   40 1
  17   10   11 1
  18   10   26 1
  19   10   30 1
  20   11   27 2
  21   12   13 1
  22   12   16 1
  23   12   31 1
  24   13   14 1
  25   13   32 1
  26   13   33 1
  27   14   17 1
  28   14   34 1
  29   15   19 1
  30   17   21 2
  31   18   19 2
  32   18   20 1
  33   19   36 1
  34   21   24 1
  35   21   37 1
  36   22   23 1
  37   22   38 1
  38   22   39 1
  39   23   26 2
  40   23   27 1
  41   24   25 2
  42   24   41 1
  43   25   42 1
  44   26   28 1
  45   27   29 1
  46   28   43 1
  47   28   44 1
  48   28   45 1
  49   29   46 1
  50   29   47 1
  51   29   48 1
  52   30   49 1
  53   30   50 1
  54   30   51 1

#	End of record

#	Name: 5766946
#	Creating user name:	landrgr1
#	Creation time:	28. 01. 2015 13:52

#	Modifying user name:	landrgr1
#	Modification time:	28. 01. 2015 13:52

#	Program:	corina 3.48 0006  22.01.2010

@<TRIPOS>MOLECULE
5766946
  46   48    0    0    0
SMALL
NO_CHARGES


@<TRIPOS>ATOM
   1 S1            -0.0427     0.8035    -0.2652 S.o2    
   2 O2            -0.8388     3.4486    -4.1051 O.3     
   3 O3            -0.0689    -0.6107    -0.4019 O.2     
   4 O4             1.1609     1.5572    -0.2143 O.2     
   5 O5             1.1096     3.1695    -4.7497 O.2     
   6 O6             4.0342     3.0339    -4.9383 O.3     
   7 O7             4.7802     3.7482    -6.9053 O.2     
   8 N8            -0.9222     1.4119    -1.5296 N.am    
   9 N9             0.7703     4.4394    -7.9425 N.pl3   
  10 C10           -1.1154     2.8583    -1.6587 C.3     
  11 C11            0.1794     4.0193    -6.7578 C.2     
  12 C12           -1.6124     3.1770    -3.0452 C.2     
  13 C13            2.1054     4.3167    -7.8725 C.2     
  14 C14           -1.6185     3.6863    -5.1811 C.2     
  15 C15            2.4689     3.8099    -6.6405 C.2     
  16 C16           -1.1692     4.0065    -6.4795 C.2     
  17 C17            1.2232     3.6040    -5.8849 C.2     
  18 C18           -2.9112     3.2347    -3.4193 C.2     
  19 C19           -0.9266     1.1771     1.2125 C.ar    
  20 C20           -2.9367     3.5593    -4.7826 C.2     
  21 C21            3.0658     4.6783    -8.9761 C.3     
  22 C22           -1.8624     0.2853     1.7024 C.ar    
  23 C23           -0.6802     2.3594     1.8851 C.ar    
  24 C24            3.8324     3.5310    -6.1753 C.2     
  25 C25           -2.5559     0.5785     2.8617 C.ar    
  26 C26           -1.3737     2.6525     3.0444 C.ar    
  27 C27           -2.3133     1.7632     3.5314 C.ar    
  28 C28            5.4092     2.7823    -4.5452 C.3     
  29 H29           -1.8474     3.1941    -0.9242 H       
  30 H30           -0.1675     3.3682    -1.4864 H       
  31 H31           -1.3095     0.8105    -2.1848 H       
  32 H32            0.2856     4.7712    -8.7144 H       
  33 H33           -1.8829     4.2417    -7.2552 H       
  34 H34           -3.7686     3.0624    -2.7857 H       
  35 H35           -3.8134     3.6853    -5.4005 H       
  36 H36            2.5084     5.0532    -9.8345 H       
  37 H37            3.7513     5.4488    -8.6232 H       
  38 H38            3.6325     3.7943    -9.2687 H       
  39 H39           -2.0519    -0.6402     1.1791 H       
  40 H40            0.0543     3.0540     1.5050 H       
  41 H41           -3.2875    -0.1180     3.2440 H       
  42 H42           -1.1810     3.5761     3.5701 H       
  43 H43           -2.8553     1.9923     4.4370 H       
  44 H44            5.4300     2.3848    -3.5305 H       
  45 H45            5.8557     2.0593    -5.2279 H       
  46 H46            5.9739     3.7138    -4.5822 H       
@<TRIPOS>BOND
   1    1    3 2
   2    1    4 2
   3    1    8 am
   4    1   19 1
   5    2   12 1
   6    2   14 1
   7    5   17 2
   8    6   24 1
   9    6   28 1
  10    7   24 2
  11    8   10 1
  12    8   31 1
  13    9   11 1
  14    9   13 1
  15    9   32 1
  16   10   12 1
  17   10   29 1
  18   10   30 1
  19   11   16 2
  20   11   17 1
  21   12   18 2
  22   13   15 2
  23   13   21 1
  24   14   16 1
  25   14   20 2
  26   15   17 1
  27   15   24 1
  28   16   33 1
  29   18   20 1
  30   18   34 1
  31   19   22 ar
  32   19   23 ar
  33   20   35 1
  34   21   36 1
  35   21   37 1
  36   21   38 1
  37   22   25 ar
  38   22   39 1
  39   23   26 ar
  40   23   40 1
  41   25   27 ar
  42   25   41 1
  43   26   27 ar
  44   26   42 1
  45   27   43 1
  46   28   44 1
  47   28   45 1
  48   28   46 1

#	End of record

#	Name: 5765471
#	Creating user name:	landrgr1
#	Creation time:	28. 01. 2015 13:52

#	Modifying user name:	landrgr1
#	Modification time:	28. 01. 2015 13:52

#	Program:	corina 3.48 0006  22.01.2010

@<TRIPOS>MOLECULE
5765471
  49   51    0    0    0
SMALL
NO_CHARGES


@<TRIPOS>ATOM
   1 S1            -1.1598     1.3603     0.3612 S.o2    
   2 S2            -2.4883     3.9402    -2.8529 S.3     
   3 O3            -2.9930     9.6062     0.9115 O.3     
   4 O4            -1.7747    11.6892    -0.4098 O.3     
   5 O5            -1.2528    -0.0577     0.3614 O.2     
   6 O6             0.0648     2.0589     0.5385 O.2     
   7 O7            -4.7871     3.2643     4.5895 O.3     
   8 O8            -1.2533     6.3859    -0.2897 O.2     
   9 O9            -0.7183     9.8956    -4.9783 O.2     
  10 O10           -1.2131     7.8466    -4.8927 O.2     
  11 N11           -1.7833     1.8695    -1.0860 N.am    
  12 N12           -1.4714     4.1915    -0.5880 N.2     
  13 N13           -1.1653     8.9432    -4.3647 N.pl3   
  14 C14           -2.2457     1.9303     1.6264 C.ar    
  15 C15           -2.2697     8.0530    -2.3118 C.ar    
  16 C16           -1.6506     9.1184    -2.9772 C.ar    
  17 C17           -2.4388     6.7608    -2.9882 C.2     
  18 C18           -2.1861     5.6070    -2.3200 C.2     
  19 C19           -2.7219     8.2221    -0.9973 C.ar    
  20 C20           -1.8564     3.2080    -1.3672 C.2     
  21 C21           -2.5548     9.4381    -0.3648 C.ar    
  22 C22           -1.9373    10.4940    -1.0345 C.ar    
  23 C23           -1.4931    10.3292    -2.3399 C.ar    
  24 C24           -3.3025     1.1390     2.0370 C.ar    
  25 C25           -2.0361     3.1657     2.2108 C.ar    
  26 C26           -4.1550     1.5834     3.0291 C.ar    
  27 C27           -2.8857     3.6147     3.2033 C.ar    
  28 C28           -3.9499     2.8248     3.6134 C.ar    
  29 C29           -1.5971     5.4402    -0.9807 C.2     
  30 C30           -3.6167     8.4827     1.5366 C.3     
  31 C31           -1.1343    12.7280    -1.1534 C.3     
  32 C32           -4.5155     4.5522     5.1459 C.3     
  33 H33           -2.0968     1.2198    -1.7346 H       
  34 H34           -2.7642     6.7286    -4.0175 H       
  35 H35           -3.2004     7.4038    -0.4797 H       
  36 H36           -1.0155    11.1502    -2.8539 H       
  37 H37           -3.4619     0.1728     1.5816 H       
  38 H38           -1.2072     3.7800     1.8914 H       
  39 H39           -4.9805     0.9651     3.3493 H       
  40 H40           -2.7213     4.5795     3.6597 H       
  41 H41           -3.9184     8.7513     2.5490 H       
  42 H42           -4.4948     8.1883     0.9619 H       
  43 H43           -2.9127     7.6515     1.5758 H       
  44 H44           -1.0681    13.6263    -0.5396 H       
  45 H45           -0.1320    12.4069    -1.4369 H       
  46 H46           -1.7144    12.9430    -2.0508 H       
  47 H47           -3.5205     4.5532     5.5911 H       
  48 H48           -4.5622     5.3051     4.3591 H       
  49 H49           -5.2565     4.7807     5.9119 H       
@<TRIPOS>BOND
   1    1    5 2
   2    1    6 2
   3    1   11 am
   4    1   14 1
   5    2   18 1
   6    2   20 1
   7    3   21 1
   8    3   30 1
   9    4   22 1
  10    4   31 1
  11    7   28 1
  12    7   32 1
  13    8   29 2
  14    9   13 2
  15   10   13 2
  16   11   20 1
  17   11   33 1
  18   12   20 2
  19   12   29 1
  20   13   16 1
  21   14   24 ar
  22   14   25 ar
  23   15   16 ar
  24   15   17 1
  25   15   19 ar
  26   16   23 ar
  27   17   18 2
  28   17   34 1
  29   18   29 1
  30   19   21 ar
  31   19   35 1
  32   21   22 ar
  33   22   23 ar
  34   23   36 1
  35   24   26 ar
  36   24   37 1
  37   25   27 ar
  38   25   38 1
  39   26   28 ar
  40   26   39 1
  41   27   28 ar
  42   27   40 1
  43   30   41 1
  44   30   42 1
  45   30   43 1
  46   31   44 1
  47   31   45 1
  48   31   46 1
  49   32   47 1
  50   32   48 1
  51   32   49 1

#	End of record

#	Name: 5763681
#	Creating user name:	landrgr1
#	Creation time:	28. 01. 2015 13:52

#	Modifying user name:	landrgr1
#	Modification time:	28. 01. 2015 13:52

#	Program:	corina 3.48 0006  22.01.2010

@<TRIPOS>MOLECULE
5763681
  44   46    0    0    0
SMALL
NO_CHARGES


@<TRIPOS>ATOM
   1 Br1            4.5795    -8.2669    -3.9109 Br      
   2 O2             2.1078    -1.7861    -2.4195 O.3     
   3 O3             2.4272     0.1803    -1.3407 O.3     
   4 O4            -3.6101    -4.9783     1.1272 O.2     
   5 O5            -2.1564    -9.4884     1.4203 O.3     
   6 O6            -1.4903    -5.8208    -1.9635 O.2     
   7 N7            -0.3093    -5.0185    -0.2621 N.am    
   8 N8            -2.4268    -6.7548     0.5104 N.am    
   9 C9            -0.5223    -2.2679     0.1777 C.ar    
  10 C10            1.2274    -1.7121    -1.3785 C.ar    
  11 C11            1.4243    -0.5007    -0.7144 C.ar    
  12 C12            0.2596    -2.5928    -0.9364 C.ar    
  13 C13           -1.5531    -3.2016     0.6528 C.2     
  14 C14           -1.4599    -4.5199     0.3583 C.2     
  15 C15           -0.3197    -1.0505     0.8377 C.ar    
  16 C16            0.6479    -0.1779     0.3905 C.ar    
  17 C17            2.5629    -0.4372    -2.6342 C.3     
  18 C18           -2.5667    -5.4265     0.6901 C.2     
  19 C19           -3.5656    -7.6485     0.7354 C.3     
  20 C20           -0.4105    -5.7068    -1.4164 C.2     
  21 C21            0.7908    -6.3229    -2.0170 C.ar    
  22 C22           -3.1417    -9.0932     0.4637 C.3     
  23 C23            0.6891    -7.0367    -3.2127 C.ar    
  24 C24            2.0332    -6.1889    -1.3941 C.ar    
  25 C25            1.8139    -7.6094    -3.7683 C.ar    
  26 C26            3.1506    -6.7663    -1.9596 C.ar    
  27 C27            3.0423    -7.4778    -3.1427 C.ar    
  28 H28            0.1069    -3.5308    -1.4494 H       
  29 H29           -2.3848    -2.8362     1.2368 H       
  30 H30           -0.9210    -0.7958     1.6979 H       
  31 H31            0.8034     0.7608     0.9016 H       
  32 H32            3.6048    -0.4309    -2.9541 H       
  33 H33            1.9332     0.0672    -3.3671 H       
  34 H34            0.5613    -4.8687     0.1385 H       
  35 H35           -3.9012    -7.5564     1.7683 H       
  36 H36           -4.3794    -7.3761     0.0633 H       
  37 H37           -1.5719    -7.1192     0.2321 H       
  38 H38           -2.7234    -9.1665    -0.5402 H       
  39 H39           -4.0095    -9.7478     0.5444 H       
  40 H40           -0.2684    -7.1403    -3.7014 H       
  41 H41            2.1189    -5.6340    -0.4716 H       
  42 H42            1.7365    -8.1620    -4.6929 H       
  43 H43            4.1122    -6.6631    -1.4789 H       
  44 H44           -1.8409   -10.3956     1.3081 H       
@<TRIPOS>BOND
   1    1   27 1
   2    2   10 1
   3    2   17 1
   4    3   11 1
   5    3   17 1
   6    4   18 2
   7    5   22 1
   8    5   44 1
   9    6   20 2
  10    7   14 1
  11    7   20 am
  12    7   34 1
  13    8   18 am
  14    8   19 1
  15    8   37 1
  16    9   12 ar
  17    9   13 1
  18    9   15 ar
  19   10   11 ar
  20   10   12 ar
  21   11   16 ar
  22   12   28 1
  23   13   14 2
  24   13   29 1
  25   14   18 1
  26   15   16 ar
  27   15   30 1
  28   16   31 1
  29   17   32 1
  30   17   33 1
  31   19   22 1
  32   19   35 1
  33   19   36 1
  34   20   21 1
  35   21   23 ar
  36   21   24 ar
  37   22   38 1
  38   22   39 1
  39   23   25 ar
  40   23   40 1
  41   24   26 ar
  42   24   41 1
  43   25   27 ar
  44   25   42 1
  45   26   27 ar
  46   26   43 1

#	End of record

#	Name: 5763525
#	Creating user name:	landrgr1
#	Creation time:	28. 01. 2015 13:52

#	Modifying user name:	landrgr1
#	Modification time:	28. 01. 2015 13:52

#	Program:	corina 3.48 0006  22.01.2010

@<TRIPOS>MOLECULE
5763525
  41   44    0    0    0
SMALL
NO_CHARGES


@<TRIPOS>ATOM
   1 Br1           -7.7384     7.8849    -1.2520 Br      
   2 O2            -4.8560     6.9839    -0.9565 O.2     
   3 O3            -7.7788     1.5147    -0.5452 O.2     
   4 O4            -9.4153     2.8206    -0.8038 O.2     
   5 N5            -0.0204     1.3997     0.1048 N.pl3   
   6 N6            -1.8102     3.0143    -0.3126 N.pl3   
   7 N7            -0.0179    -0.0023     0.2104 N.2     
   8 N8            -3.1914     3.2184    -0.4289 N.pl3   
   9 N9            -2.0044     0.6177    -0.1552 N.2     
  10 N10           -1.2355    -0.3913     0.0440 N.2     
  11 N11           -8.2149     2.6410    -0.7024 N.pl3   
  12 C12            2.2657     1.9972    -0.4946 C.ar    
  13 C13            1.0760     2.2626     0.2162 C.ar    
  14 C14            3.3627     2.8847    -0.3672 C.ar    
  15 C15            1.0030     3.3783     1.0201 C.ar    
  16 C16            2.3845     0.8686    -1.3202 C.ar    
  17 C17            3.2472     4.0124     0.4638 C.ar    
  18 C18            4.5475     2.6204    -1.0751 C.ar    
  19 C19            2.0874     4.2436     1.1378 C.ar    
  20 C20           -1.3126     1.7358    -0.1340 C.2     
  21 C21            3.5480     0.6436    -1.9911 C.ar    
  22 C22            4.6252     1.5188    -1.8712 C.ar    
  23 C23           -5.0511     4.6616    -0.7181 C.2     
  24 C24           -3.6739     4.4580    -0.6021 C.2     
  25 C25           -5.9495     3.5735    -0.6553 C.2     
  26 C26           -5.5971     6.0121    -0.9020 C.2     
  27 C27           -7.2860     3.7916    -0.7703 C.2     
  28 C28           -6.9908     6.1644    -1.0136 C.2     
  29 C29           -7.8015     5.0721    -0.9508 C.2     
  30 H30            0.0939     3.5847     1.5654 H       
  31 H31            1.5574     0.1816    -1.4227 H       
  32 H32            4.0778     4.6948     0.5675 H       
  33 H33            5.3921     3.2879    -0.9883 H       
  34 H34            2.0069     5.1126     1.7740 H       
  35 H35            3.6368    -0.2257    -2.6258 H       
  36 H36            5.5368     1.3182    -2.4145 H       
  37 H37           -1.2029     3.7693    -0.3573 H       
  38 H38           -3.7987     2.4634    -0.3843 H       
  39 H39           -2.9977     5.2987    -0.6518 H       
  40 H40           -5.5751     2.5700    -0.5165 H       
  41 H41           -8.8700     5.2028    -1.0381 H       
@<TRIPOS>BOND
   1    1   28 1
   2    2   26 2
   3    3   11 2
   4    4   11 2
   5    5    7 1
   6    5   13 1
   7    5   20 1
   8    6    8 1
   9    6   20 1
  10    6   37 1
  11    7   10 2
  12    8   24 1
  13    8   38 1
  14    9   10 1
  15    9   20 2
  16   11   27 1
  17   12   13 ar
  18   12   14 ar
  19   12   16 ar
  20   13   15 ar
  21   14   17 ar
  22   14   18 ar
  23   15   19 ar
  24   15   30 1
  25   16   21 ar
  26   16   31 1
  27   17   19 ar
  28   17   32 1
  29   18   22 ar
  30   18   33 1
  31   19   34 1
  32   21   22 ar
  33   21   35 1
  34   22   36 1
  35   23   24 2
  36   23   25 1
  37   23   26 1
  38   24   39 1
  39   25   27 2
  40   25   40 1
  41   26   28 1
  42   27   29 1
  43   28   29 2
  44   29   41 1

#	End of record

#	Name: 5762165
#	Creating user name:	landrgr1
#	Creation time:	28. 01. 2015 13:52

#	Modifying user name:	landrgr1
#	Modification time:	28. 01. 2015 13:52

#	Program:	corina 3.48 0006  22.01.2010

@<TRIPOS>MOLECULE
5762165
  30   32    0    0    0
SMALL
NO_CHARGES


@<TRIPOS>ATOM
   1 N1            -0.0157     1.3070     0.0092 N.2     
   2 N2             2.8957     3.6355    -0.0077 N.pl3   
   3 N3             2.8356     5.0338    -0.0010 N.pl3   
   4 N4             1.0674     6.6938     0.0219 N.pl3   
   5 N5            -1.8257     4.1544     0.0372 N.1     
   6 C6             0.5377    -2.7332     0.3982 C.3     
   7 C7             1.7461    -1.8846    -0.0185 C.3     
   8 C8            -0.6827    -2.3334    -0.4337 C.3     
   9 C9             1.3297    -0.4366    -0.0105 C.2     
  10 C10           -1.1769    -0.9487     0.0020 C.3     
  11 C11            0.0021    -0.0041     0.0020 C.2     
  12 C12            2.1218     0.6838    -0.0132 C.2     
  13 C13            1.2426     1.7814    -0.0002 C.2     
  14 C14            1.6171     3.1479     0.0019 C.2     
  15 C15            0.7403     4.2511     0.0148 C.2     
  16 C16            1.5290     5.4131     0.0127 C.2     
  17 C17           -0.6906     4.1971     0.0273 C.1     
  18 H18            0.7602    -3.7874     0.2327 H       
  19 H19            0.3260    -2.5690     1.4548 H       
  20 H20            2.5629    -2.0364     0.6871 H       
  21 H21            2.0673    -2.1692    -1.0204 H       
  22 H22           -0.4089    -2.3048    -1.4883 H       
  23 H23           -1.4773    -3.0648    -0.2861 H       
  24 H24           -1.9338    -0.5920    -0.6966 H       
  25 H25           -1.6003    -1.0082     1.0047 H       
  26 H26            3.2012     0.7162    -0.0232 H       
  27 H27            3.7060     3.1025    -0.0211 H       
  28 H28            3.5985     5.6329    -0.0048 H       
  29 H29            1.6931     7.4350     0.0192 H       
  30 H30            0.1127     6.8652     0.0311 H       
@<TRIPOS>BOND
   1    1   11 2
   2    1   13 1
   3    2    3 1
   4    2   14 1
   5    2   27 1
   6    3   16 1
   7    3   28 1
   8    4   16 1
   9    4   29 1
  10    4   30 1
  11    5   17 3
  12    6    7 1
  13    6    8 1
  14    6   18 1
  15    6   19 1
  16    7    9 1
  17    7   20 1
  18    7   21 1
  19    8   10 1
  20    8   22 1
  21    8   23 1
  22    9   11 1
  23    9   12 2
  24   10   11 1
  25   10   24 1
  26   10   25 1
  27   12   13 1
  28   12   26 1
  29   13   14 2
  30   14   15 1
  31   15   16 2
  32   15   17 1

#	End of record

#	Name: 5762008
#	Creating user name:	landrgr1
#	Creation time:	28. 01. 2015 13:52

#	Modifying user name:	landrgr1
#	Modification time:	28. 01. 2015 13:52

#	Program:	corina 3.48 0006  22.01.2010

@<TRIPOS>MOLECULE
5762008
  50   52    0    0    0
SMALL
NO_CHARGES


@<TRIPOS>ATOM
   1 O1            -4.4130    -0.8942     0.6096 O.2     
   2 O2            -0.0010     1.4949    -0.2593 O.3     
   3 O3            -4.0101     0.5997    -1.6120 O.2     
   4 N4            -4.0082    -7.2992     1.4689 N.pl3   
   5 N5            -2.9864    -2.5982     0.5877 N.am    
   6 N6            -2.5066     1.0220    -0.0326 N.am    
   7 N7            -3.3550    -9.2826     0.9249 N.2     
   8 C8            -3.4612    -4.9576     1.0227 C.3     
   9 C9            -4.5705    -5.9494     1.3784 C.3     
  10 C10           -4.0485    -3.5479     0.9283 C.3     
  11 C11           -3.4929    -7.8909     2.5905 C.2     
  12 C12           -3.2722    -1.2882     0.4505 C.2     
  13 C13           -3.9067    -8.1941     0.4627 C.2     
  14 C14           -2.2098    -0.3383     0.1099 C.2     
  15 C15           -3.0900    -9.1243     2.2302 C.2     
  16 C16           -3.6342     2.8657    -1.1828 C.ar    
  17 C17           -0.9357    -0.7784    -0.0678 C.2     
  18 C18           -3.3988     1.4236    -0.9595 C.2     
  19 C19           -4.0750     5.5674    -1.6012 C.ar    
  20 C20            0.1096     0.1507    -0.2920 C.2     
  21 C21           -4.4771     3.2872    -2.2125 C.ar    
  22 C22           -3.0189     3.8119    -0.3613 C.ar    
  23 C23           -4.6924     4.6347    -2.4155 C.ar    
  24 C24           -3.2427     5.1562    -0.5752 C.ar    
  25 C25           -4.3149     7.0377    -1.8289 C.3     
  26 C26            1.4218    -0.1574    -0.5836 C.2     
  27 C27            2.0974     1.0656    -0.7251 C.2     
  28 C28            1.1932     2.0476    -0.5194 C.2     
  29 H29           -2.6925    -4.9799     1.7952 H       
  30 H30           -3.0213    -5.2329     0.0642 H       
  31 H31           -5.3393    -5.9271     0.6060 H       
  32 H32           -5.0105    -5.6741     2.3369 H       
  33 H33           -4.4885    -3.2726     1.8868 H       
  34 H34           -4.8173    -3.5256     0.1558 H       
  35 H35           -2.0774    -2.9121     0.4609 H       
  36 H36           -3.4226    -7.4527     3.5751 H       
  37 H37           -4.2293    -8.0355    -0.5557 H       
  38 H38           -2.6337    -9.8576     2.8786 H       
  39 H39           -2.0702     1.6758     0.5358 H       
  40 H40           -0.7207    -1.8363    -0.0380 H       
  41 H41           -4.9594     2.5602    -2.8490 H       
  42 H42           -2.3693     3.4921     0.4401 H       
  43 H43           -5.3409     4.9623    -3.2147 H       
  44 H44           -2.7638     5.8894     0.0568 H       
  45 H45           -5.1737     7.3611    -1.2408 H       
  46 H46           -3.4330     7.6012    -1.5243 H       
  47 H47           -4.5114     7.2143    -2.8864 H       
  48 H48            1.8465    -1.1453    -0.6835 H       
  49 H49            3.1445     1.1965    -0.9551 H       
  50 H50            1.3985     3.1071    -0.5587 H       
@<TRIPOS>BOND
   1    1   12 2
   2    2   20 1
   3    2   28 1
   4    3   18 2
   5    4    9 1
   6    4   11 1
   7    4   13 1
   8    5   10 1
   9    5   12 am
  10    5   35 1
  11    6   14 1
  12    6   18 am
  13    6   39 1
  14    7   13 2
  15    7   15 1
  16    8    9 1
  17    8   10 1
  18    8   29 1
  19    8   30 1
  20    9   31 1
  21    9   32 1
  22   10   33 1
  23   10   34 1
  24   11   15 2
  25   11   36 1
  26   12   14 1
  27   13   37 1
  28   14   17 2
  29   15   38 1
  30   16   18 1
  31   16   21 ar
  32   16   22 ar
  33   17   20 1
  34   17   40 1
  35   19   23 ar
  36   19   24 ar
  37   19   25 1
  38   20   26 2
  39   21   23 ar
  40   21   41 1
  41   22   24 ar
  42   22   42 1
  43   23   43 1
  44   24   44 1
  45   25   45 1
  46   25   46 1
  47   25   47 1
  48   26   27 1
  49   26   48 1
  50   27   28 2
  51   27   49 1
  52   28   50 1

#	End of record

#	Name: 5761192
#	Creating user name:	landrgr1
#	Creation time:	28. 01. 2015 13:52

#	Modifying user name:	landrgr1
#	Modification time:	28. 01. 2015 13:52

#	Program:	corina 3.48 0006  22.01.2010

@<TRIPOS>MOLECULE
5761192
  44   45    0    0    0
SMALL
NO_CHARGES


@<TRIPOS>ATOM
   1 O1            -0.9352    -2.2151    -0.4516 O.2     
   2 O2            -0.6931     1.1297    -2.3444 O.2     
   3 O3            -8.8881    -4.0217    -1.7315 O.2     
   4 N4            -0.0891     1.2622    -0.2112 N.am    
   5 N5            -2.3085    -0.4794    -0.6379 N.am    
   6 N6            -3.4156    -1.3189    -0.8177 N.pl3   
   7 C7             0.0561    -0.1276    -0.1209 C.2     
   8 C8             1.2319    -0.6546     0.2297 C.2     
   9 C9            -0.4934     3.3011    -1.5047 C.ar    
  10 C10           -1.0900    -1.0098    -0.4133 C.2     
  11 C11           -0.4329     1.8290    -1.3846 C.2     
  12 C12            1.3490    -2.1361     0.4799 C.3     
  13 C13            2.4417     0.2320     0.3752 C.3     
  14 C14           -0.8491     3.8914    -2.7186 C.ar    
  15 C15           -0.2008     4.1069    -0.4031 C.ar    
  16 C16           -5.7339    -1.6300    -1.2208 C.2     
  17 C17           -4.6278    -0.7913    -1.0412 C.2     
  18 C18           -0.9036     5.2658    -2.8239 C.ar    
  19 C19           -0.2591     5.4800    -0.5219 C.ar    
  20 C20           -0.6063     6.0588    -1.7298 C.ar    
  21 C21           -7.0114    -1.0754    -1.4562 C.2     
  22 C22           -5.5734    -3.0324    -1.1726 C.2     
  23 C23           -8.0821    -1.8905    -1.6300 C.2     
  24 C24           -6.6471    -3.8435    -1.3469 C.2     
  25 C25           -7.9206    -3.2881    -1.5753 C.2     
  26 H26            0.0537     1.8166     0.5718 H       
  27 H27            1.5082    -2.6529    -0.4665 H       
  28 H28            2.1917    -2.3269     1.1443 H       
  29 H29            0.4317    -2.5000     0.9427 H       
  30 H30            2.5523     0.5275     1.4185 H       
  31 H31            3.3309    -0.3111     0.0552 H       
  32 H32            2.3170     1.1211    -0.2429 H       
  33 H33           -2.4189     0.4836    -0.6751 H       
  34 H34           -1.0807     3.2735    -3.5736 H       
  35 H35            0.0704     3.6563     0.5402 H       
  36 H36           -3.3051    -2.2819    -0.7805 H       
  37 H37           -4.7508     0.2809    -1.0826 H       
  38 H38           -1.1786     5.7238    -3.7625 H       
  39 H39           -0.0332     6.1047     0.3297 H       
  40 H40           -0.6498     7.1344    -1.8177 H       
  41 H41           -7.1359    -0.0034    -1.4976 H       
  42 H42           -4.5967    -3.4589    -0.9975 H       
  43 H43           -9.0591    -1.4669    -1.8101 H       
  44 H44           -6.5249    -4.9159    -1.3102 H       
@<TRIPOS>BOND
   1    1   10 2
   2    2   11 2
   3    3   25 2
   4    4    7 1
   5    4   11 am
   6    4   26 1
   7    5    6 1
   8    5   10 am
   9    5   33 1
  10    6   17 1
  11    6   36 1
  12    7    8 2
  13    7   10 1
  14    8   12 1
  15    8   13 1
  16    9   11 1
  17    9   14 ar
  18    9   15 ar
  19   12   27 1
  20   12   28 1
  21   12   29 1
  22   13   30 1
  23   13   31 1
  24   13   32 1
  25   14   18 ar
  26   14   34 1
  27   15   19 ar
  28   15   35 1
  29   16   17 2
  30   16   21 1
  31   16   22 1
  32   17   37 1
  33   18   20 ar
  34   18   38 1
  35   19   20 ar
  36   19   39 1
  37   20   40 1
  38   21   23 2
  39   21   41 1
  40   22   24 2
  41   22   42 1
  42   23   25 1
  43   23   43 1
  44   24   25 1
  45   24   44 1

#	End of record

#	Name: 5760322
#	Creating user name:	landrgr1
#	Creation time:	28. 01. 2015 13:52

#	Modifying user name:	landrgr1
#	Modification time:	28. 01. 2015 13:52

#	Program:	corina 3.48 0006  22.01.2010

@<TRIPOS>MOLECULE
5760322
  39   40    0    0    0
SMALL
NO_CHARGES


@<TRIPOS>ATOM
   1 O1             2.1985     1.5584    -0.0106 O.2     
   2 O2             3.4659     3.4034    -0.0128 O.2     
   3 O3             4.9611    10.0475     0.0078 O.2     
   4 N4            -0.0178     1.4608     0.0101 N.am    
   5 N5             2.7617     5.5072     0.0053 N.am    
   6 N6             4.0761     5.9921    -0.0047 N.pl3   
   7 N7            -3.2936    -1.2316     1.2266 N.ar    
   8 C8             0.0021    -0.0041     0.0020 C.3     
   9 C9            -1.4117    -0.5257     0.0127 C.ar    
  10 C10            1.1197     3.6573     0.0110 C.3     
  11 C11            1.1401     2.1505     0.0027 C.2     
  12 C12           -2.0818    -0.7623    -1.1781 C.ar    
  13 C13            2.5335     4.1789     0.0003 C.2     
  14 C14           -2.0566    -0.7747     1.2092 C.ar    
  15 C15            5.6140     7.7977    -0.0097 C.2     
  16 C16            4.3033     7.3141     0.0003 C.2     
  17 C17           -3.3810    -1.2425    -1.1199 C.ar    
  18 C18            5.8814     9.2416    -0.0045 C.2     
  19 C19            6.7113     6.9087    -0.0190 C.2     
  20 C20           -3.9611    -1.4680     0.1143 C.ar    
  21 C21            7.2175     9.6777    -0.0144 C.2     
  22 C22            7.9791     7.3986    -0.0281 C.2     
  23 C23            8.2299     8.7678    -0.0285 C.2     
  24 H24            0.5123    -0.3556    -0.8948 H       
  25 H25            0.5293    -0.3651     0.8851 H       
  26 H26           -0.8643     1.9343     0.0167 H       
  27 H27            0.5925     4.0184    -0.8721 H       
  28 H28            0.6095     4.0088     0.9078 H       
  29 H29           -1.6031    -0.5765    -2.1282 H       
  30 H30           -1.5417    -0.5927     2.1410 H       
  31 H31            2.0160     6.1274     0.0157 H       
  32 H32            3.4730     8.0046     0.0119 H       
  33 H33           -3.9328    -1.4380    -2.0275 H       
  34 H34            4.8218     5.3719    -0.0151 H       
  35 H35            6.5434     5.8419    -0.0185 H       
  36 H36           -4.9728    -1.8420     0.1682 H       
  37 H37            7.4408    10.7344    -0.0112 H       
  38 H38            8.8109     6.7098    -0.0348 H       
  39 H39            9.2520     9.1166    -0.0364 H       
@<TRIPOS>BOND
   1    1   11 2
   2    2   13 2
   3    3   18 2
   4    4    8 1
   5    4   11 am
   6    4   26 1
   7    5    6 1
   8    5   13 am
   9    5   31 1
  10    6   16 1
  11    6   34 1
  12    7   14 ar
  13    7   20 ar
  14    8    9 1
  15    8   24 1
  16    8   25 1
  17    9   12 ar
  18    9   14 ar
  19   10   11 1
  20   10   13 1
  21   10   27 1
  22   10   28 1
  23   12   17 ar
  24   12   29 1
  25   14   30 1
  26   15   16 2
  27   15   18 1
  28   15   19 1
  29   16   32 1
  30   17   20 ar
  31   17   33 1
  32   18   21 1
  33   19   22 2
  34   19   35 1
  35   20   36 1
  36   21   23 2
  37   21   37 1
  38   22   23 1
  39   22   38 1
  40   23   39 1

#	End of record

#	Name: 5759276
#	Creating user name:	landrgr1
#	Creation time:	28. 01. 2015 13:52

#	Modifying user name:	landrgr1
#	Modification time:	28. 01. 2015 13:52

#	Program:	corina 3.48 0006  22.01.2010

@<TRIPOS>MOLECULE
5759276
  43   44    0    0    0
SMALL
NO_CHARGES


@<TRIPOS>ATOM
   1 S1            -0.0220     1.7692     0.0118 S.3     
   2 S2            -1.3504    -1.0536     0.0085 S.2     
   3 O3             3.4075     0.3339    -0.0283 O.2     
   4 N4             1.2965    -0.3547    -0.0122 N.am    
   5 N5             2.0475     9.0874     0.0329 N.pl3   
   6 C6             1.8336    -2.2673     1.4143 C.3     
   7 C7             1.6844    -1.7674    -0.0240 C.3     
   8 C8             2.2388    -3.7426     1.4020 C.3     
   9 C9             2.2169     0.5940    -0.0159 C.2     
  10 C10            2.3880    -4.2425     2.8403 C.3     
  11 C11            0.0021    -0.0041     0.0020 C.2     
  12 C12            1.7458     1.9260    -0.0043 C.2     
  13 C13            2.4921     3.0873    -0.0052 C.2     
  14 C14            1.8506     4.3317     0.0082 C.2     
  15 C15            2.5886     5.4800     0.0073 C.2     
  16 C16            2.8025    10.2623     0.0320 C.ar    
  17 C17            1.9441     6.7302     0.0207 C.2     
  18 C18            2.1675    11.4982     0.0452 C.ar    
  19 C19            4.1905    10.1981     0.0237 C.ar    
  20 C20            2.6757     7.8686     0.0198 C.2     
  21 C21            2.9173    12.6578     0.0447 C.ar    
  22 C22            4.9339    11.3618     0.0233 C.ar    
  23 C23            4.2985    12.5902     0.0307 C.ar    
  24 H24            2.6007    -1.6841     1.9239 H       
  25 H25            0.8843    -2.1555     1.9381 H       
  26 H26            0.9174    -2.3505    -0.5336 H       
  27 H27            2.6338    -1.8791    -0.5478 H       
  28 H28            1.4717    -4.3258     0.8924 H       
  29 H29            3.1881    -3.8544     0.8782 H       
  30 H30            2.6766    -5.2936     2.8316 H       
  31 H31            3.1550    -3.6594     3.3499 H       
  32 H32            1.4386    -4.1308     3.3641 H       
  33 H33            3.5709     3.0359    -0.0161 H       
  34 H34            0.7719     4.3831     0.0192 H       
  35 H35            3.6673     5.4287    -0.0037 H       
  36 H36            0.8654     6.7815     0.0317 H       
  37 H37            1.0786     9.1335     0.0427 H       
  38 H38            1.0889    11.5517     0.0554 H       
  39 H39            4.6873     9.2391     0.0179 H       
  40 H40            3.7545     7.8172     0.0088 H       
  41 H41            2.4244    13.6187     0.0550 H       
  42 H42            6.0128    11.3126     0.0168 H       
  43 H43            4.8824    13.4987     0.0300 H       
@<TRIPOS>BOND
   1    1   11 1
   2    1   12 1
   3    2   11 2
   4    3    9 2
   5    4    7 1
   6    4    9 am
   7    4   11 am
   8    5   16 1
   9    5   20 1
  10    5   37 1
  11    6    7 1
  12    6    8 1
  13    6   24 1
  14    6   25 1
  15    7   26 1
  16    7   27 1
  17    8   10 1
  18    8   28 1
  19    8   29 1
  20    9   12 1
  21   10   30 1
  22   10   31 1
  23   10   32 1
  24   12   13 2
  25   13   14 1
  26   13   33 1
  27   14   15 2
  28   14   34 1
  29   15   17 1
  30   15   35 1
  31   16   18 ar
  32   16   19 ar
  33   17   20 2
  34   17   36 1
  35   18   21 ar
  36   18   38 1
  37   19   22 ar
  38   19   39 1
  39   20   40 1
  40   21   23 ar
  41   21   41 1
  42   22   23 ar
  43   22   42 1
  44   23   43 1

#	End of record

#	Name: 5756838
#	Creating user name:	landrgr1
#	Creation time:	28. 01. 2015 13:52

#	Modifying user name:	landrgr1
#	Modification time:	28. 01. 2015 13:52

#	Program:	corina 3.48 0006  22.01.2010

@<TRIPOS>MOLECULE
5756838
  40   42    0    0    0
SMALL
NO_CHARGES


@<TRIPOS>ATOM
   1 S1            -0.9866     3.7963    -0.8549 S.2     
   2 O2             1.5887     3.0121    -0.5719 O.2     
   3 O3             1.9099    -6.7911     0.8021 O.2     
   4 O4             3.9380    -6.2126     0.8550 O.2     
   5 O5             5.9446     5.2116    -0.8730 O.2     
   6 O6             4.3851     4.4126     0.3017 O.2     
   7 N7            -0.0040     1.3624    -0.4483 N.am    
   8 N8             0.0088    -0.0186    -0.2565 N.2     
   9 N9             3.4537     0.6936    -0.1271 N.2     
  10 N10            4.1076     1.8001    -0.2371 N.pl3   
  11 N11            2.7609    -5.9221     0.7379 N.pl3   
  12 N12            5.4661     4.2844    -0.2447 N.pl3   
  13 N13           -2.3262     1.5136    -0.6329 N.am    
  14 C14            1.2272    -0.4666    -0.1140 C.2     
  15 C15            1.6237    -1.8770     0.1065 C.ar    
  16 C16            2.1376     0.6938    -0.2144 C.2     
  17 C17            1.2528     1.8494    -0.4327 C.2     
  18 C18            0.6516    -2.8742     0.1799 C.ar    
  19 C19            2.9709    -2.2135     0.2356 C.ar    
  20 C20            5.4995     1.7998    -0.1448 C.ar    
  21 C21            1.0271    -4.1861     0.3850 C.ar    
  22 C22            3.3340    -3.5288     0.4404 C.ar    
  23 C23            2.3648    -4.5129     0.5176 C.ar    
  24 C24            6.1982     3.0017    -0.1452 C.ar    
  25 C25            6.1909     0.5982    -0.0463 C.ar    
  26 C26           -1.1147     2.1041    -0.6294 C.2     
  27 C27            7.5756     2.9975    -0.0532 C.ar    
  28 C28            7.5689     0.6020     0.0454 C.ar    
  29 C29            8.2607     1.7993     0.0389 C.ar    
  30 H30           -0.3931    -2.6202     0.0769 H       
  31 H31            3.7284    -1.4461     0.1751 H       
  32 H32            0.2751    -4.9592     0.4424 H       
  33 H33            4.3770    -3.7906     0.5405 H       
  34 H34            3.6315     2.6323    -0.3840 H       
  35 H35            5.6513    -0.3373    -0.0412 H       
  36 H36            8.1191     3.9308    -0.0535 H       
  37 H37            8.1068    -0.3314     0.1219 H       
  38 H38            9.3384     1.7991     0.1104 H       
  39 H39           -3.1255     2.0474    -0.7632 H       
  40 H40           -2.3987     0.5548    -0.5051 H       
@<TRIPOS>BOND
   1    1   26 2
   2    2   17 2
   3    3   11 2
   4    4   11 2
   5    5   12 2
   6    6   12 2
   7    7    8 1
   8    7   17 am
   9    7   26 am
  10    8   14 2
  11    9   10 1
  12    9   16 2
  13   10   20 1
  14   10   34 1
  15   11   23 1
  16   12   24 1
  17   13   26 am
  18   13   39 1
  19   13   40 1
  20   14   15 1
  21   14   16 1
  22   15   18 ar
  23   15   19 ar
  24   16   17 1
  25   18   21 ar
  26   18   30 1
  27   19   22 ar
  28   19   31 1
  29   20   24 ar
  30   20   25 ar
  31   21   23 ar
  32   21   32 1
  33   22   23 ar
  34   22   33 1
  35   24   27 ar
  36   25   28 ar
  37   25   35 1
  38   27   29 ar
  39   27   36 1
  40   28   29 ar
  41   28   37 1
  42   29   38 1

#	End of record

#	Name: 5751033
#	Creating user name:	landrgr1
#	Creation time:	28. 01. 2015 13:52

#	Modifying user name:	landrgr1
#	Modification time:	28. 01. 2015 13:52

#	Program:	corina 3.48 0006  22.01.2010

@<TRIPOS>MOLECULE
5751033
  25   26    0    0    0
SMALL
NO_CHARGES


@<TRIPOS>ATOM
   1 S1            -0.3333     1.7115     0.9312 S.3     
   2 O2             0.3392    -6.1864    -0.9671 O.3     
   3 O3             1.4606    -1.5498     1.3938 O.2     
   4 O4             1.6458     2.8449     2.3408 O.2     
   5 N5             1.6820     0.5992     1.9361 N.am    
   6 C6            -0.6904    -2.2523    -0.2488 C.ar    
   7 C7            -1.0564    -0.8535     0.0072 C.2     
   8 C8            -0.2016    -0.0402     0.6779 C.2     
   9 C9            -1.6498    -3.2644    -0.1208 C.ar    
  10 C10            0.6178    -2.5785    -0.6272 C.ar    
  11 C11            0.0006    -4.8930    -0.7313 C.ar    
  12 C12           -1.3011    -4.5742    -0.3620 C.ar    
  13 C13            0.9554    -3.8916    -0.8659 C.ar    
  14 C14            1.0446    -0.4065     1.3604 C.2     
  15 C15            1.1702     1.8331     1.8616 C.2     
  16 C16            1.6935    -6.4443    -1.3429 C.3     
  17 H17           -2.0058    -0.4718    -0.3384 H       
  18 H18           -2.6612    -3.0180     0.1668 H       
  19 H19            1.3604    -1.8014    -0.7320 H       
  20 H20           -2.0402    -5.3555    -0.2636 H       
  21 H21            1.9639    -4.1443    -1.1581 H       
  22 H22            2.5144     0.4433     2.4091 H       
  23 H23            2.3611    -6.1066    -0.5502 H       
  24 H24            1.8293    -7.5142    -1.5010 H       
  25 H25            1.9232    -5.9089    -2.2641 H       
@<TRIPOS>BOND
   1    1    8 1
   2    1   15 1
   3    2   11 1
   4    2   16 1
   5    3   14 2
   6    4   15 2
   7    5   14 am
   8    5   15 am
   9    5   22 1
  10    6    7 1
  11    6    9 ar
  12    6   10 ar
  13    7    8 2
  14    7   17 1
  15    8   14 1
  16    9   12 ar
  17    9   18 1
  18   10   13 ar
  19   10   19 1
  20   11   12 ar
  21   11   13 ar
  22   12   20 1
  23   13   21 1
  24   16   23 1
  25   16   24 1
  26   16   25 1

#	End of record

#	Name: 5742512
#	Creating user name:	landrgr1
#	Creation time:	28. 01. 2015 13:52

#	Modifying user name:	landrgr1
#	Modification time:	28. 01. 2015 13:52

#	Program:	corina 3.48 0006  22.01.2010

@<TRIPOS>MOLECULE
5742512
  33   36    0    0    0
SMALL
NO_CHARGES


@<TRIPOS>ATOM
   1 Cl1            1.4637    -2.6287     0.2222 Cl      
   2 N2            -0.1093     1.4611    -0.0441 N.pl3   
   3 N3            -1.2257     3.3762    -0.0798 N.pl3   
   4 N4            -1.2609    -0.7607     0.0662 N.2     
   5 N5            -2.4277     1.2467     0.0235 N.2     
   6 N6            -3.5755    -0.7868     0.1379 N.pl3   
   7 C7             0.0021    -0.0041     0.0020 C.3     
   8 C8             0.8324     2.4791    -0.1081 C.ar    
   9 C9            -1.3571     2.0168    -0.0303 C.2     
  10 C10            0.1303     3.6865    -0.1279 C.ar    
  11 C11            0.7529    -0.4534    -1.2250 C.ar    
  12 C12            2.2193     2.4870    -0.1517 C.ar    
  13 C13            0.8235     4.8866    -0.1884 C.ar    
  14 C14           -2.3860    -0.0882     0.0779 C.2     
  15 C15            1.4515    -1.6477    -1.2100 C.ar    
  16 C16            0.7392     0.3245    -2.3670 C.ar    
  17 C17            2.8996     3.6872    -0.2143 C.ar    
  18 C18            2.2040     4.8836    -0.2272 C.ar    
  19 C19            2.1405    -2.0595    -2.3367 C.ar    
  20 C20            1.4276    -0.0878    -3.4930 C.ar    
  21 C21            2.1307    -1.2777    -3.4767 C.ar    
  22 H22            0.5989    -0.2696     0.8746 H       
  23 H23           -1.9543     4.0165    -0.0824 H       
  24 H24            2.7660     1.5558    -0.1363 H       
  25 H25            0.2842     5.8222    -0.2054 H       
  26 H26            0.1903     1.2546    -2.3802 H       
  27 H27            3.9791     3.6923    -0.2478 H       
  28 H28            2.7427     5.8185    -0.2747 H       
  29 H29            2.6862    -2.9914    -2.3255 H       
  30 H30            1.4161     0.5202    -4.3855 H       
  31 H31            2.6686    -1.5991    -4.3563 H       
  32 H32           -3.5675    -1.7562     0.1704 H       
  33 H33           -4.4192    -0.3082     0.1475 H       
@<TRIPOS>BOND
   1    1   15 1
   2    2    7 1
   3    2    8 1
   4    2    9 1
   5    3    9 1
   6    3   10 1
   7    3   23 1
   8    4    7 1
   9    4   14 2
  10    5    9 2
  11    5   14 1
  12    6   14 1
  13    6   32 1
  14    6   33 1
  15    7   11 1
  16    7   22 1
  17    8   10 ar
  18    8   12 ar
  19   10   13 ar
  20   11   15 ar
  21   11   16 ar
  22   12   17 ar
  23   12   24 1
  24   13   18 ar
  25   13   25 1
  26   15   19 ar
  27   16   20 ar
  28   16   26 1
  29   17   18 ar
  30   17   27 1
  31   18   28 1
  32   19   21 ar
  33   19   29 1
  34   20   21 ar
  35   20   30 1
  36   21   31 1

#	End of record

#	Name: 5742502
#	Creating user name:	landrgr1
#	Creation time:	28. 01. 2015 13:52

#	Modifying user name:	landrgr1
#	Modification time:	28. 01. 2015 13:52

#	Program:	corina 3.48 0006  22.01.2010

@<TRIPOS>MOLECULE
5742502
  57   59    0    0    0
SMALL
NO_CHARGES


@<TRIPOS>ATOM
   1 O1            -5.6717     0.4870    -2.2437 O.2     
   2 O2            -2.9927     4.3094    -1.5708 O.3     
   3 N3            -6.5190    -0.2776     0.1955 N.3     
   4 N4            -9.0286    -0.3578     1.5375 N.3     
   5 N5            -3.9852     1.7163    -1.4911 N.am    
   6 C6            -7.3980     0.8999     0.2135 C.3     
   7 C7            -6.6924    -1.0793     1.4149 C.3     
   8 C8            -8.8553     0.4439     0.3182 C.3     
   9 C9            -8.1496    -1.5353     1.5195 C.3     
  10 C10           -5.1148     0.1162     0.0196 C.3     
  11 C11          -10.4328    -0.7516     1.7134 C.3     
  12 C12           -4.2245    -1.1263     0.0853 C.3     
  13 C13           -4.9448     0.7857    -1.3198 C.2     
  14 C14          -10.5348    -1.7658     2.8234 C.2     
  15 C15          -11.3482    -1.5483     3.8474 C.2     
  16 C16           -3.8932     2.4131    -2.7033 C.ar    
  17 C17          -11.4482    -2.5430     4.9361 C.ar    
  18 C18           -3.3928     3.7133    -2.7256 C.ar    
  19 C19           -4.2949     1.8084    -3.8850 C.ar    
  20 C20           -3.3043     4.3972    -3.9268 C.ar    
  21 C21          -12.3034    -2.3170     6.0153 C.ar    
  22 C22          -10.6922    -3.7148     4.8862 C.ar    
  23 C23           -4.2033     2.4978    -5.0797 C.ar    
  24 C24           -3.7120     3.7897    -5.1003 C.ar    
  25 C25          -12.3925    -3.2498     7.0280 C.ar    
  26 C26          -10.7905    -4.6395     5.9054 C.ar    
  27 C27          -11.6363    -4.4070     6.9752 C.ar    
  28 C28           -2.4903     5.6435    -1.6697 C.3     
  29 H29           -7.1503     1.5256     1.0710 H       
  30 H30           -7.2606     1.4704    -0.7050 H       
  31 H31           -6.0405    -1.9519     1.3721 H       
  32 H32           -6.4366    -0.4762     2.2860 H       
  33 H33           -9.1110    -0.1592    -0.5530 H       
  34 H34           -9.5072     1.3165     0.3609 H       
  35 H35           -8.2871    -2.1058     2.4381 H       
  36 H36           -8.3973    -2.1610     0.6620 H       
  37 H37           -4.8300     0.8095     0.8110 H       
  38 H38          -11.0273     0.1260     1.9674 H       
  39 H39          -10.8065    -1.1880     0.7871 H       
  40 H40           -4.5093    -1.8196    -0.7061 H       
  41 H41           -3.1826    -0.8341    -0.0452 H       
  42 H42           -4.3474    -1.6105     1.0541 H       
  43 H43           -9.9453    -2.6699     2.7847 H       
  44 H44           -3.3581     1.9038    -0.7752 H       
  45 H45          -11.9377    -0.6442     3.8861 H       
  46 H46           -4.6787     0.7990    -3.8719 H       
  47 H47           -2.9171     5.4052    -3.9469 H       
  48 H48          -12.8940    -1.4138     6.0578 H       
  49 H49          -10.0318    -3.8976     4.0514 H       
  50 H50           -4.5160     2.0257    -5.9993 H       
  51 H51           -3.6426     4.3247    -6.0359 H       
  52 H52          -13.0538    -3.0759     7.8641 H       
  53 H53          -10.2062    -5.5470     5.8678 H       
  54 H54          -11.7094    -5.1339     7.7707 H       
  55 H55           -3.2624     6.2929    -2.0822 H       
  56 H56           -2.2072     5.9995    -0.6791 H       
  57 H57           -1.6179     5.6558    -2.3231 H       
@<TRIPOS>BOND
   1    1   13 2
   2    2   18 1
   3    2   28 1
   4    3    6 1
   5    3    7 1
   6    3   10 1
   7    4    8 1
   8    4    9 1
   9    4   11 1
  10    5   13 am
  11    5   16 1
  12    5   44 1
  13    6    8 1
  14    6   29 1
  15    6   30 1
  16    7    9 1
  17    7   31 1
  18    7   32 1
  19    8   33 1
  20    8   34 1
  21    9   35 1
  22    9   36 1
  23   10   12 1
  24   10   13 1
  25   10   37 1
  26   11   14 1
  27   11   38 1
  28   11   39 1
  29   12   40 1
  30   12   41 1
  31   12   42 1
  32   14   15 2
  33   14   43 1
  34   15   17 1
  35   15   45 1
  36   16   18 ar
  37   16   19 ar
  38   17   21 ar
  39   17   22 ar
  40   18   20 ar
  41   19   23 ar
  42   19   46 1
  43   20   24 ar
  44   20   47 1
  45   21   25 ar
  46   21   48 1
  47   22   26 ar
  48   22   49 1
  49   23   24 ar
  50   23   50 1
  51   24   51 1
  52   25   27 ar
  53   25   52 1
  54   26   27 ar
  55   26   53 1
  56   27   54 1
  57   28   55 1
  58   28   56 1
  59   28   57 1

#	End of record

#	Name: 5742478
#	Creating user name:	landrgr1
#	Creation time:	28. 01. 2015 13:52

#	Modifying user name:	landrgr1
#	Modification time:	28. 01. 2015 13:52

#	Program:	corina 3.48 0006  22.01.2010

@<TRIPOS>MOLECULE
5742478
  34   35    0    0    0
SMALL
NO_CHARGES


@<TRIPOS>ATOM
   1 O1            -0.0177     1.4545     0.0100 O.3     
   2 O2             1.9640    -1.4637    -0.0249 O.2     
   3 O3            -0.4522     8.8610     0.0490 O.3     
   4 O4             2.2309     9.4928     0.0272 O.2     
   5 N5             2.1324     0.8233    -0.0139 N.am    
   6 C6             0.0021    -0.0041     0.0020 C.3     
   7 C7             1.4759    -0.3541    -0.0139 C.2     
   8 C8            -0.6660    -0.5559     1.2630 C.3     
   9 C9            -0.6900    -0.5424    -1.2518 C.3     
  10 C10            1.2603     1.8665     0.0000 C.2     
  11 C11            1.6467     3.2032     0.0028 C.2     
  12 C12            0.6918     4.1963     0.0165 C.2     
  13 C13            1.0844     5.5548     0.0193 C.2     
  14 C14            0.1086     6.5700     0.0333 C.2     
  15 C15            2.4497     5.8925     0.0139 C.2     
  16 C16            0.4889     7.8785     0.0359 C.2     
  17 C17            2.8286     7.1998     0.0166 C.2     
  18 C18            1.8580     8.2133     0.0247 C.2     
  19 C19           -1.8204     8.4487     0.0594 C.3     
  20 H20           -1.7080    -0.2373     1.2912 H       
  21 H21           -0.6191    -1.6448     1.2522 H       
  22 H22           -0.1468    -0.1786     2.1440 H       
  23 H23           -0.1877    -0.1556    -2.1385 H       
  24 H24           -0.6430    -1.6313    -1.2536 H       
  25 H25           -1.7324    -0.2237    -1.2567 H       
  26 H26            3.0981     0.9142    -0.0226 H       
  27 H27            2.6951     3.4623    -0.0058 H       
  28 H28           -0.3567     3.9372     0.0251 H       
  29 H29           -0.9401     6.3118     0.0415 H       
  30 H30            3.1981     5.1138     0.0081 H       
  31 H31            3.8774     7.4574     0.0125 H       
  32 H32           -2.4647     9.3279     0.0693 H       
  33 H33           -2.0280     7.8561    -0.8315 H       
  34 H34           -2.0120     7.8478     0.9483 H       
@<TRIPOS>BOND
   1    1    6 1
   2    1   10 1
   3    2    7 2
   4    3   16 1
   5    3   19 1
   6    4   18 2
   7    5    7 am
   8    5   10 1
   9    5   26 1
  10    6    7 1
  11    6    8 1
  12    6    9 1
  13    8   20 1
  14    8   21 1
  15    8   22 1
  16    9   23 1
  17    9   24 1
  18    9   25 1
  19   10   11 2
  20   11   12 1
  21   11   27 1
  22   12   13 2
  23   12   28 1
  24   13   14 1
  25   13   15 1
  26   14   16 2
  27   14   29 1
  28   15   17 2
  29   15   30 1
  30   16   18 1
  31   17   18 1
  32   17   31 1
  33   19   32 1
  34   19   33 1
  35   19   34 1

#	End of record

#	Name: 5742470
#	Creating user name:	landrgr1
#	Creation time:	28. 01. 2015 13:52

#	Modifying user name:	landrgr1
#	Modification time:	28. 01. 2015 13:52

#	Program:	corina 3.48 0006  22.01.2010

@<TRIPOS>MOLECULE
5742470
  47   50    0    0    0
SMALL
NO_CHARGES


@<TRIPOS>ATOM
   1 O1             2.2866    -2.6777    -0.0371 O.2     
   2 N2            -0.0159     1.3212     0.0093 N.2     
   3 N3             1.1797     3.4802     0.0085 N.pl3   
   4 N4             2.5516     3.7672    -0.0003 N.pl3   
   5 C5            -1.1581    -2.0801    -0.7167 C.3     
   6 C6            -1.3147    -0.7461     0.0156 C.3     
   7 C7            -0.0612    -2.8985    -0.0288 C.3     
   8 C8             1.1866    -0.7127    -0.0145 C.2     
   9 C9             2.4889     0.0666    -0.0189 C.3     
  10 C10            0.0021    -0.0041     0.0020 C.2     
  11 C11            1.2161    -2.0995    -0.0273 C.2     
  12 C12            2.3519     1.5739    -0.0099 C.2     
  13 C13           -2.4793    -2.8501    -0.6668 C.3     
  14 C14           -0.7675    -1.8222    -2.1733 C.3     
  15 C15            1.0447     2.1101     0.0034 C.2     
  16 C16            3.2870    -0.3417     1.1925 C.ar    
  17 C17            3.2366     2.5861    -0.0116 C.2     
  18 C18            4.5390    -0.9066     1.0371 C.ar    
  19 C19            2.7693    -0.1461     2.4592 C.ar    
  20 C20            4.7366     2.4410    -0.0239 C.3     
  21 C21            5.2710    -1.2811     2.1483 C.ar    
  22 C22            3.5013    -0.5206     3.5704 C.ar    
  23 C23            4.7512    -1.0904     3.4149 C.ar    
  24 C24            5.5490    -1.4991     4.6263 C.3     
  25 H25           -2.0753    -0.1452    -0.4831 H       
  26 H26           -1.6167    -0.9310     1.0465 H       
  27 H27           -0.3571    -3.1156     0.9976 H       
  28 H28            0.0925    -3.8315    -0.5711 H       
  29 H29            3.0544    -0.2192    -0.9059 H       
  30 H30           -3.2609    -2.2621    -1.1479 H       
  31 H31           -2.3661    -3.8002    -1.1889 H       
  32 H32           -2.7522    -3.0366     0.3719 H       
  33 H33            0.1764    -1.2780    -2.2054 H       
  34 H34           -0.6563    -2.7735    -2.6936 H       
  35 H35           -1.5442    -1.2312    -2.6586 H       
  36 H36            0.4578     4.1280     0.0170 H       
  37 H37            2.9467     4.6531     0.0010 H       
  38 H38            4.9452    -1.0556     0.0475 H       
  39 H39            1.7931     0.2996     2.5808 H       
  40 H40            5.1971     3.4290    -0.0220 H       
  41 H41            5.0556     1.8898     0.8607 H       
  42 H42            5.0419     1.8995    -0.9192 H       
  43 H43            6.2489    -1.7231     2.0269 H       
  44 H44            3.0970    -0.3675     4.5601 H       
  45 H45            6.1679    -0.6633     4.9527 H       
  46 H46            4.8696    -1.7836     5.4297 H       
  47 H47            6.1866    -2.3460     4.3726 H       
@<TRIPOS>BOND
   1    1   11 2
   2    2   10 1
   3    2   15 2
   4    3    4 1
   5    3   15 1
   6    3   36 1
   7    4   17 1
   8    4   37 1
   9    5    6 1
  10    5    7 1
  11    5   13 1
  12    5   14 1
  13    6   10 1
  14    6   25 1
  15    6   26 1
  16    7   11 1
  17    7   27 1
  18    7   28 1
  19    8    9 1
  20    8   10 2
  21    8   11 1
  22    9   12 1
  23    9   16 1
  24    9   29 1
  25   12   15 1
  26   12   17 2
  27   13   30 1
  28   13   31 1
  29   13   32 1
  30   14   33 1
  31   14   34 1
  32   14   35 1
  33   16   18 ar
  34   16   19 ar
  35   17   20 1
  36   18   21 ar
  37   18   38 1
  38   19   22 ar
  39   19   39 1
  40   20   40 1
  41   20   41 1
  42   20   42 1
  43   21   23 ar
  44   21   43 1
  45   22   23 ar
  46   22   44 1
  47   23   24 1
  48   24   45 1
  49   24   46 1
  50   24   47 1

#	End of record

#	Name: 5742456
#	Creating user name:	landrgr1
#	Creation time:	28. 01. 2015 13:52

#	Modifying user name:	landrgr1
#	Modification time:	28. 01. 2015 13:52

#	Program:	corina 3.48 0006  22.01.2010

@<TRIPOS>MOLECULE
5742456
  54   59    0    0    0
SMALL
NO_CHARGES


@<TRIPOS>ATOM
   1 O1            -0.9454    -1.0402    -1.3426 O.2     
   2 O2             1.0455     3.1408    -0.9541 O.2     
   3 N3            -0.0178     1.4628     0.0101 N.am    
   4 N4            -1.8396    -1.1506     0.7596 N.am    
   5 N5             3.5856    -0.6599    -0.0363 N.pl3   
   6 N6             3.1953    -1.8694     0.5561 N.pl3   
   7 N7             2.2698     1.3755    -0.5372 N.2     
   8 C8             0.0682     0.1018     0.5508 C.3     
   9 C9             1.4067    -0.5837     0.4887 C.2     
  10 C10           -0.3916     0.1292     1.9824 C.ar    
  11 C11           -0.9418    -0.7570    -0.1632 C.2     
  12 C12           -1.5457    -0.6469     2.0284 C.ar    
  13 C13            2.4764     0.1496    -0.0859 C.2     
  14 C14            1.8667    -1.7884     0.8632 C.2     
  15 C15            1.1047     2.0107    -0.5023 C.2     
  16 C16            0.0944     0.7323     3.1205 C.ar    
  17 C17           -1.2257     2.1680     0.0197 C.ar    
  18 C18           -2.2044    -0.8049     3.2453 C.ar    
  19 C19           -2.9908    -2.0080     0.4668 C.3     
  20 C20            1.0504    -2.8739     1.5162 C.3     
  21 C21           -0.5665     0.5705     4.3258 C.ar    
  22 C22            4.8670    -0.3371    -0.4923 C.ar    
  23 C23           -1.7143    -0.1981     4.3834 C.ar    
  24 C24           -2.0880     2.0862    -1.0660 C.ar    
  25 C25           -1.5679     2.9471     1.1173 C.ar    
  26 C26            5.8994    -1.2593    -0.3778 C.ar    
  27 C27            5.1093     0.9044    -1.0662 C.ar    
  28 C28           -3.2800     2.7835    -1.0532 C.ar    
  29 C29           -2.7615     3.6419     1.1239 C.ar    
  30 C30           -3.6155     3.5624     0.0391 C.ar    
  31 C31            7.1640    -0.9374    -0.8298 C.ar    
  32 C32            6.3763     1.2199    -1.5161 C.ar    
  33 C33            7.4031     0.3015    -1.3958 C.ar    
  34 H34            0.9916     1.3315     3.0729 H       
  35 H35            3.7703    -2.6333     0.7194 H       
  36 H36           -3.1016    -1.4038     3.2981 H       
  37 H37           -2.9933    -2.2635    -0.5928 H       
  38 H38           -2.9249    -2.9199     1.0602 H       
  39 H39           -3.9106    -1.4786     0.7151 H       
  40 H40            1.6844    -3.7395     1.7084 H       
  41 H41            0.6431    -2.5056     2.4578 H       
  42 H42            0.2332    -3.1617     0.8548 H       
  43 H43           -0.1862     1.0432     5.2193 H       
  44 H44           -2.2297    -0.3244     5.3240 H       
  45 H45           -1.8264     1.4783    -1.9195 H       
  46 H46           -0.9016     3.0093     1.9650 H       
  47 H47            5.7134    -2.2269     0.0645 H       
  48 H48            4.3078     1.6220    -1.1607 H       
  49 H49           -3.9509     2.7206    -1.8972 H       
  50 H50           -3.0284     4.2476     1.9772 H       
  51 H51           -4.5482     4.1067     0.0466 H       
  52 H52            7.9673    -1.6539    -0.7408 H       
  53 H53            6.5654     2.1849    -1.9627 H       
  54 H54            8.3931     0.5508    -1.7482 H       
@<TRIPOS>BOND
   1    1   11 2
   2    2   15 2
   3    3    8 1
   4    3   15 am
   5    3   17 1
   6    4   11 am
   7    4   12 1
   8    4   19 1
   9    5    6 1
  10    5   13 1
  11    5   22 1
  12    6   14 1
  13    6   35 1
  14    7   13 2
  15    7   15 1
  16    8    9 1
  17    8   10 1
  18    8   11 1
  19    9   13 1
  20    9   14 2
  21   10   12 ar
  22   10   16 ar
  23   12   18 ar
  24   14   20 1
  25   16   21 ar
  26   16   34 1
  27   17   24 ar
  28   17   25 ar
  29   18   23 ar
  30   18   36 1
  31   19   37 1
  32   19   38 1
  33   19   39 1
  34   20   40 1
  35   20   41 1
  36   20   42 1
  37   21   23 ar
  38   21   43 1
  39   22   26 ar
  40   22   27 ar
  41   23   44 1
  42   24   28 ar
  43   24   45 1
  44   25   29 ar
  45   25   46 1
  46   26   31 ar
  47   26   47 1
  48   27   32 ar
  49   27   48 1
  50   28   30 ar
  51   28   49 1
  52   29   30 ar
  53   29   50 1
  54   30   51 1
  55   31   33 ar
  56   31   52 1
  57   32   33 ar
  58   32   53 1
  59   33   54 1

#	End of record

#	Name: 5741761
#	Creating user name:	landrgr1
#	Creation time:	28. 01. 2015 13:52

#	Modifying user name:	landrgr1
#	Modification time:	28. 01. 2015 13:52

#	Program:	corina 3.48 0006  22.01.2010

@<TRIPOS>MOLECULE
5741761
  52   56    0    0    0
SMALL
NO_CHARGES


@<TRIPOS>ATOM
   1 F1            -2.8496     1.6435    -3.5637 F       
   2 F2            -3.4470    -0.5099    -3.0893 F       
   3 F3            -1.4100    -0.0694    -4.0251 F       
   4 O4             0.2152     1.5497     0.3739 O.3     
   5 O5            -5.4680     1.7489     2.8637 O.2     
   6 O6            -5.8989     2.2103     7.3967 O.3     
   7 O7            -5.4842     0.3526     8.6247 O.3     
   8 O8            -3.6442    -3.2507     5.5308 O.3     
   9 N9            -2.7834     1.0232    -0.7955 N.pl3   
  10 N10           -1.9912    -0.2327     1.0533 N.2     
  11 N11           -3.8182     1.9278    -0.9999 N.pl3   
  12 N12           -3.8479     0.3091     3.3540 N.am    
  13 C13           -1.7711     0.5346    -1.7382 C.3     
  14 C14           -1.3049    -0.8398    -1.2331 C.3     
  15 C15           -0.8820    -0.7347     0.2328 C.3     
  16 C16           -2.8420     0.5982     0.5243 C.2     
  17 C17           -2.3825     0.3968    -3.1340 C.3     
  18 C18           -4.0024     1.2722     1.1195 C.2     
  19 C19            0.2875     0.2089     0.3466 C.2     
  20 C20           -4.5443     2.0612     0.1395 C.2     
  21 C21           -4.4876     1.1284     2.4961 C.2     
  22 C22            1.5810    -0.1490     0.4377 C.2     
  23 C23           -4.2390     0.2590     4.6978 C.ar    
  24 C24           -3.9864    -0.8789     5.4525 C.ar    
  25 C25            2.3314     1.0461     0.5249 C.2     
  26 C26            1.4517     2.0627     0.4819 C.2     
  27 C27           -3.2913    -2.0595     4.8247 C.3     
  28 C28           -4.8796     1.3466     5.2754 C.ar    
  29 C29           -4.3714    -0.9297     6.7785 C.ar    
  30 C30           -5.2661     1.2964     6.6043 C.ar    
  31 C31           -5.0109     0.1538     7.3588 C.ar    
  32 C32           -1.7766    -1.8554     4.8939 C.3     
  33 C33           -6.3932     1.4646     8.5249 C.3     
  34 H34           -0.9279     1.2247    -1.7679 H       
  35 H35           -2.1216    -1.5558    -1.3245 H       
  36 H36           -0.4587    -1.1779    -1.8313 H       
  37 H37           -0.5852    -1.7197     0.5930 H       
  38 H38           -3.9953     2.3941    -1.8319 H       
  39 H39           -5.4136     2.6915     0.2554 H       
  40 H40            1.9713    -1.1560     0.4438 H       
  41 H41           -3.1166    -0.2458     3.0406 H       
  42 H42            3.4050     1.1272     0.6101 H       
  43 H43            1.6979     3.1133     0.5266 H       
  44 H44           -3.5985    -2.1502     3.7829 H       
  45 H45           -5.0761     2.2319     4.6887 H       
  46 H46           -4.1742    -1.8158     7.3635 H       
  47 H47           -1.2738    -2.7093     4.4398 H       
  48 H48           -1.5074    -0.9467     4.3553 H       
  49 H49           -1.4694    -1.7647     5.9358 H       
  50 H50           -6.3578     2.0710     9.4300 H       
  51 H51           -7.4080     1.1138     8.3372 H       
  52 H52           -3.4001    -3.2403     6.4664 H       
@<TRIPOS>BOND
   1    1   17 1
   2    2   17 1
   3    3   17 1
   4    4   19 1
   5    4   26 1
   6    5   21 2
   7    6   30 1
   8    6   33 1
   9    7   31 1
  10    7   33 1
  11    8   27 1
  12    8   52 1
  13    9   11 1
  14    9   13 1
  15    9   16 1
  16   10   15 1
  17   10   16 2
  18   11   20 1
  19   11   38 1
  20   12   21 am
  21   12   23 1
  22   12   41 1
  23   13   14 1
  24   13   17 1
  25   13   34 1
  26   14   15 1
  27   14   35 1
  28   14   36 1
  29   15   19 1
  30   15   37 1
  31   16   18 1
  32   18   20 2
  33   18   21 1
  34   19   22 2
  35   20   39 1
  36   22   25 1
  37   22   40 1
  38   23   24 ar
  39   23   28 ar
  40   24   27 1
  41   24   29 ar
  42   25   26 2
  43   25   42 1
  44   26   43 1
  45   27   32 1
  46   27   44 1
  47   28   30 ar
  48   28   45 1
  49   29   31 ar
  50   29   46 1
  51   30   31 ar
  52   32   47 1
  53   32   48 1
  54   32   49 1
  55   33   50 1
  56   33   51 1

#	End of record

#	Name: 5741242
#	Creating user name:	landrgr1
#	Creation time:	28. 01. 2015 13:52

#	Modifying user name:	landrgr1
#	Modification time:	28. 01. 2015 13:52

#	Program:	corina 3.48 0006  22.01.2010

@<TRIPOS>MOLECULE
5741242
  31   33    0    0    0
SMALL
NO_CHARGES


@<TRIPOS>ATOM
   1 Cl1           10.0891     4.1981    -0.0742 Cl      
   2 O2             1.1667     3.2686     0.0081 O.2     
   3 N3            -0.0167     1.3786     0.0096 N.am    
   4 N4             2.3949    -0.0254    -0.0218 N.2     
   5 C5             0.0021    -0.0041     0.0020 C.ar    
   6 C6             1.2289    -0.6956    -0.0138 C.ar    
   7 C7             2.4197     1.2904    -0.0141 C.2     
   8 C8             1.1545     2.0518     0.0021 C.2     
   9 C9            -1.1904    -0.7194     0.0095 C.ar    
  10 C10            1.2273    -2.0998    -0.0218 C.ar    
  11 C11            3.7032     2.0002    -0.0226 C.2     
  12 C12            6.1456     2.0173    -0.0467 C.ar    
  13 C13           -1.1644    -2.0980     0.0014 C.ar    
  14 C14            4.8576     1.3050    -0.0382 C.2     
  15 C15            0.0445    -2.7803    -0.0142 C.ar    
  16 C16            7.3455     1.2991    -0.0630 C.ar    
  17 C17            6.1753     3.4155    -0.0444 C.ar    
  18 C18            8.5482     1.9729    -0.0713 C.ar    
  19 C19            7.3852     4.0760    -0.0528 C.ar    
  20 C20            8.5700     3.3580    -0.0636 C.ar    
  21 H21           -0.8595     1.8587     0.0162 H       
  22 H22           -2.1351    -0.1962     0.0220 H       
  23 H23            2.1618    -2.6410    -0.0343 H       
  24 H24            3.7232     3.0800    -0.0162 H       
  25 H25            4.8376     0.2252    -0.0446 H       
  26 H26           -2.0919    -2.6514     0.0073 H       
  27 H27            0.0490    -3.8602    -0.0203 H       
  28 H28            7.3300     0.2192    -0.0686 H       
  29 H29            5.2524     3.9765    -0.0363 H       
  30 H30            9.4756     1.4195    -0.0835 H       
  31 H31            7.4096     5.1557    -0.0510 H       
@<TRIPOS>BOND
   1    1   20 1
   2    2    8 2
   3    3    5 1
   4    3    8 am
   5    3   21 1
   6    4    6 1
   7    4    7 2
   8    5    6 ar
   9    5    9 ar
  10    6   10 ar
  11    7    8 1
  12    7   11 1
  13    9   13 ar
  14    9   22 1
  15   10   15 ar
  16   10   23 1
  17   11   14 2
  18   11   24 1
  19   12   14 1
  20   12   16 ar
  21   12   17 ar
  22   13   15 ar
  23   13   26 1
  24   14   25 1
  25   15   27 1
  26   16   18 ar
  27   16   28 1
  28   17   19 ar
  29   17   29 1
  30   18   20 ar
  31   18   30 1
  32   19   20 ar
  33   19   31 1

#	End of record

#	Name: 5741118
#	Creating user name:	landrgr1
#	Creation time:	28. 01. 2015 13:52

#	Modifying user name:	landrgr1
#	Modification time:	28. 01. 2015 13:52

#	Program:	corina 3.48 0006  22.01.2010

@<TRIPOS>MOLECULE
5741118
  59   63    0    0    0
SMALL
NO_CHARGES


@<TRIPOS>ATOM
   1 F1             2.7374     1.8658     0.2173 F       
   2 F2             1.7851     3.3528     1.6669 F       
   3 F3             3.0864     4.1074    -0.0525 F       
   4 O4            -3.8819    -0.1047     0.9164 O.2     
   5 O5            -6.0332     0.8795     2.4576 O.2     
   6 N6            -0.0548     2.2017    -0.1613 N.pl3   
   7 N7            -1.9619     3.5299    -0.6323 N.2     
   8 N8             0.1539     0.9126     0.3139 N.pl3   
   9 N9            -4.3780     1.9196     0.1449 N.am    
  10 N10           -7.8916     1.4445    -0.3443 N.pl3   
  11 N11           -7.7887     1.0348     0.9900 N.am    
  12 C12            0.9239     3.2186    -0.5615 C.3     
  13 C13            0.2492     4.5893    -0.3959 C.3     
  14 C14           -1.0895     4.5983    -1.1352 C.3     
  15 C15           -1.4238     2.4253    -0.2026 C.2     
  16 C16            2.1596     3.1343     0.3368 C.3     
  17 C17           -2.0533     1.2024     0.3102 C.2     
  18 C18           -0.8459     4.3898    -2.6077 C.ar    
  19 C19           -1.0385     0.3303     0.6023 C.2     
  20 C20           -3.4907     0.9611     0.4774 C.2     
  21 C21           -0.8270     5.4736    -3.4655 C.ar    
  22 C22           -0.6357     3.1152    -3.0997 C.ar    
  23 C23           -5.7602     1.6515     0.2046 C.2     
  24 C24           -6.6523     1.8129    -0.7981 C.2     
  25 C25           -6.4972     1.1470     1.3638 C.2     
  26 C26           -0.6036     5.2823    -4.8161 C.ar    
  27 C27           -0.4122     2.9238    -4.4504 C.ar    
  28 C28           -0.3986     4.0072    -5.3090 C.ar    
  29 C29           -8.8408     0.5877     1.7953 C.ar    
  30 C30           -6.3364     2.3138    -2.1838 C.3     
  31 C31           -9.1264     1.4695    -1.1322 C.3     
  32 C32           -8.7064    -0.5840     2.5288 C.ar    
  33 C33          -10.0204     1.3174     1.8677 C.ar    
  34 C34           -9.7475    -1.0229     3.3231 C.ar    
  35 C35          -11.0577     0.8730     2.6640 C.ar    
  36 C36          -10.9228    -0.2970     3.3886 C.ar    
  37 H37            1.2099     3.0691    -1.6026 H       
  38 H38            0.0800     4.7846     0.6630 H       
  39 H39            0.8961     5.3640    -0.8077 H       
  40 H40           -1.5771     5.5616    -0.9847 H       
  41 H41            1.0210     0.4918     0.4227 H       
  42 H42           -1.1666    -0.6657     0.9998 H       
  43 H43           -0.9872     6.4699    -3.0804 H       
  44 H44           -0.6457     2.2689    -2.4288 H       
  45 H45           -4.0652     2.7939    -0.1355 H       
  46 H46           -0.5896     6.1290    -5.4864 H       
  47 H47           -0.2476     1.9281    -4.8348 H       
  48 H48           -0.2244     3.8576    -6.3643 H       
  49 H49           -6.4338     3.3992    -2.2088 H       
  50 H50           -5.3164     2.0344    -2.4475 H       
  51 H51           -7.0306     1.8702    -2.8976 H       
  52 H52           -9.5792     2.4588    -1.0668 H       
  53 H53           -8.8977     1.2427    -2.1735 H       
  54 H54           -9.8212     0.7255    -0.7424 H       
  55 H55           -7.7890    -1.1515     2.4778 H       
  56 H56          -10.1263     2.2315     1.3023 H       
  57 H57           -9.6438    -1.9341     3.8935 H       
  58 H58          -11.9750     1.4401     2.7210 H       
  59 H59          -11.7355    -0.6425     4.0102 H       
@<TRIPOS>BOND
   1    1   16 1
   2    2   16 1
   3    3   16 1
   4    4   20 2
   5    5   25 2
   6    6    8 1
   7    6   12 1
   8    6   15 1
   9    7   14 1
  10    7   15 2
  11    8   19 1
  12    8   41 1
  13    9   20 am
  14    9   23 1
  15    9   45 1
  16   10   11 1
  17   10   24 1
  18   10   31 1
  19   11   25 am
  20   11   29 1
  21   12   13 1
  22   12   16 1
  23   12   37 1
  24   13   14 1
  25   13   38 1
  26   13   39 1
  27   14   18 1
  28   14   40 1
  29   15   17 1
  30   17   19 2
  31   17   20 1
  32   18   21 ar
  33   18   22 ar
  34   19   42 1
  35   21   26 ar
  36   21   43 1
  37   22   27 ar
  38   22   44 1
  39   23   24 2
  40   23   25 1
  41   24   30 1
  42   26   28 ar
  43   26   46 1
  44   27   28 ar
  45   27   47 1
  46   28   48 1
  47   29   32 ar
  48   29   33 ar
  49   30   49 1
  50   30   50 1
  51   30   51 1
  52   31   52 1
  53   31   53 1
  54   31   54 1
  55   32   34 ar
  56   32   55 1
  57   33   35 ar
  58   33   56 1
  59   34   36 ar
  60   34   57 1
  61   35   36 ar
  62   35   58 1
  63   36   59 1

#	End of record

#	Name: 5740505
#	Creating user name:	landrgr1
#	Creation time:	28. 01. 2015 13:52

#	Modifying user name:	landrgr1
#	Modification time:	28. 01. 2015 13:52

#	Program:	corina 3.48 0006  22.01.2010

@<TRIPOS>MOLECULE
5740505
  33   34    0    0    0
SMALL
NO_CHARGES


@<TRIPOS>ATOM
   1 F1            -1.2214    -4.8638    -0.3931 F       
   2 F2            -2.4348    -4.2337    -2.2233 F       
   3 F3            -3.1094    -6.0165    -0.9641 F       
   4 O4            -0.0162     1.3433     0.0094 O.3     
   5 O5             1.0620    -0.5970    -0.0113 O.2     
   6 N6            -2.7257    -2.4895    -0.0041 N.pl3   
   7 N7            -4.7707    -1.2897     0.0653 N.2     
   8 N8            -1.3796    -2.1420     0.0037 N.pl3   
   9 C9            -3.3459    -3.8179    -0.0503 C.3     
  10 C10           -4.7468    -3.6446    -0.6579 C.3     
  11 C11           -5.5081    -2.5584     0.1031 C.3     
  12 C12           -3.4686    -1.3158     0.0304 C.2     
  13 C13           -2.5100    -4.7530    -0.9265 C.3     
  14 C14           -5.6886    -2.9941     1.5586 C.3     
  15 C15           -2.5083    -0.2129     0.0257 C.2     
  16 C16           -1.2678    -0.7604     0.0101 C.2     
  17 C17            0.0021    -0.0041     0.0020 C.2     
  18 C18            1.2684     2.0200     0.0008 C.3     
  19 C19            1.0474     3.5339     0.0110 C.3     
  20 H20           -3.4263    -4.2252     0.9575 H       
  21 H21           -4.6547    -3.3569    -1.7052 H       
  22 H22           -5.2915    -4.5861    -0.5878 H       
  23 H23           -6.4878    -2.4186    -0.3539 H       
  24 H24           -0.6374    -2.7665     0.0051 H       
  25 H25           -6.2475    -2.2306     2.0998 H       
  26 H26           -6.2360    -3.9361     1.5907 H       
  27 H27           -4.7110    -3.1259     2.0223 H       
  28 H28           -2.7433     0.8412     0.0332 H       
  29 H29            1.8378     1.7300     0.8838 H       
  30 H30            1.8208     1.7395    -0.8960 H       
  31 H31            2.0118     4.0419     0.0046 H       
  32 H32            0.4780     3.8240    -0.8720 H       
  33 H33            0.4950     3.8144     0.9079 H       
@<TRIPOS>BOND
   1    1   13 1
   2    2   13 1
   3    3   13 1
   4    4   17 1
   5    4   18 1
   6    5   17 2
   7    6    8 1
   8    6    9 1
   9    6   12 1
  10    7   11 1
  11    7   12 2
  12    8   16 1
  13    8   24 1
  14    9   10 1
  15    9   13 1
  16    9   20 1
  17   10   11 1
  18   10   21 1
  19   10   22 1
  20   11   14 1
  21   11   23 1
  22   12   15 1
  23   14   25 1
  24   14   26 1
  25   14   27 1
  26   15   16 2
  27   15   28 1
  28   16   17 1
  29   18   19 1
  30   18   29 1
  31   18   30 1
  32   19   31 1
  33   19   32 1
  34   19   33 1

#	End of record

#	Name: 5739581
#	Creating user name:	landrgr1
#	Creation time:	28. 01. 2015 13:52

#	Modifying user name:	landrgr1
#	Modification time:	28. 01. 2015 13:52

#	Program:	corina 3.48 0006  22.01.2010

@<TRIPOS>MOLECULE
5739581
  57   62    0    0    0
SMALL
NO_CHARGES


@<TRIPOS>ATOM
   1 S1             7.0338    -4.8380    -0.9747 S.2     
   2 O2             1.7173    -5.6334     0.0101 O.2     
   3 O3             0.3307     1.3853    -0.1437 O.3     
   4 O4             4.1013    -0.8933    -0.2654 O.2     
   5 O5            -0.1752     1.5026     2.0155 O.2     
   6 N6             0.0646    -4.0640     0.1504 N.am    
   7 N7             4.4055    -4.3248    -0.5683 N.am    
   8 N8             5.6879    -2.5176    -0.6107 N.am    
   9 C9            -1.2132    -4.7656     0.3592 C.3     
  10 C10            0.0187    -2.6883     0.0914 C.ar    
  11 C11           -1.1352    -1.9314     0.2144 C.ar    
  12 C12            1.2737    -2.1295    -0.1074 C.ar    
  13 C13           -2.4716    -3.9390     0.4931 C.2     
  14 C14           -2.4271    -2.6118     0.4255 C.2     
  15 C15            1.3369    -4.4779     0.0006 C.2     
  16 C16            2.1952    -3.2799    -0.1793 C.2     
  17 C17           -1.4119    -5.7275    -0.8139 C.3     
  18 C18           -1.0767    -5.6120     1.6265 C.3     
  19 C19           -1.0224    -0.5420     0.1334 C.ar    
  20 C20            1.3751    -0.7429    -0.1868 C.ar    
  21 C21            3.5615    -3.2486    -0.3687 C.2     
  22 C22            0.2277     0.0317    -0.0653 C.ar    
  23 C23           -3.6927    -1.8052     0.5622 C.3     
  24 C24            4.4386    -2.0531    -0.4008 C.2     
  25 C25            5.6572    -3.8558    -0.7078 C.2     
  26 C26            0.0545     2.0857     0.9741 C.2     
  27 C27            0.0310     3.5580     0.9338 C.ar    
  28 C28           -0.3838     4.3301     2.1036 C.ar    
  29 C29           -0.3913     5.7442     2.0221 C.ar    
  30 C30            0.4080     4.2421    -0.2149 C.ar    
  31 C31           -0.7711     3.7037     3.2937 C.ar    
  32 C32           -0.0025     6.3692     0.8249 C.ar    
  33 C33            0.3858     5.6299    -0.2498 C.ar    
  34 C34           -0.7886     6.4938     3.1422 C.ar    
  35 C35           -1.1514     4.4618     4.3614 C.ar    
  36 C36           -1.1591     5.8521     4.2849 C.ar    
  37 H37           -3.4196    -4.4331     0.6470 H       
  38 H38           -0.5880    -6.4406    -0.8427 H       
  39 H39           -2.3525    -6.2640    -0.6886 H       
  40 H40           -1.4369    -5.1633    -1.7462 H       
  41 H41           -0.8570    -4.9634     2.4746 H       
  42 H42           -2.0093    -6.1457     1.8092 H       
  43 H43           -0.2663    -6.3297     1.4985 H       
  44 H44           -1.8995     0.0817     0.2240 H       
  45 H45            2.3358    -0.2741    -0.3409 H       
  46 H46           -4.1385    -1.6592    -0.4217 H       
  47 H47           -4.3951    -2.3371     1.2040 H       
  48 H48           -3.4600    -0.8359     1.0032 H       
  49 H49            4.1407    -5.2575    -0.5983 H       
  50 H50            6.4849    -1.9691    -0.6809 H       
  51 H51            0.7215     3.6896    -1.0883 H       
  52 H52           -0.7691     2.6261     3.3659 H       
  53 H53           -0.0073     7.4471     0.7586 H       
  54 H54            0.6842     6.1370    -1.1554 H       
  55 H55           -0.7999     7.5728     3.0974 H       
  56 H56           -1.4504     3.9772     5.2791 H       
  57 H57           -1.4641     6.4303     5.1446 H       
@<TRIPOS>BOND
   1    1   25 2
   2    2   15 2
   3    3   22 1
   4    3   26 1
   5    4   24 2
   6    5   26 2
   7    6    9 1
   8    6   10 1
   9    6   15 am
  10    7   21 1
  11    7   25 am
  12    7   49 1
  13    8   24 am
  14    8   25 am
  15    8   50 1
  16    9   13 1
  17    9   17 1
  18    9   18 1
  19   10   11 ar
  20   10   12 ar
  21   11   14 1
  22   11   19 ar
  23   12   16 1
  24   12   20 ar
  25   13   14 2
  26   13   37 1
  27   14   23 1
  28   15   16 1
  29   16   21 2
  30   17   38 1
  31   17   39 1
  32   17   40 1
  33   18   41 1
  34   18   42 1
  35   18   43 1
  36   19   22 ar
  37   19   44 1
  38   20   22 ar
  39   20   45 1
  40   21   24 1
  41   23   46 1
  42   23   47 1
  43   23   48 1
  44   26   27 1
  45   27   28 ar
  46   27   30 ar
  47   28   29 ar
  48   28   31 ar
  49   29   32 ar
  50   29   34 ar
  51   30   33 ar
  52   30   51 1
  53   31   35 ar
  54   31   52 1
  55   32   33 ar
  56   32   53 1
  57   33   54 1
  58   34   36 ar
  59   34   55 1
  60   35   36 ar
  61   35   56 1
  62   36   57 1

#	End of record

#	Name: 5739119
#	Creating user name:	landrgr1
#	Creation time:	28. 01. 2015 13:52

#	Modifying user name:	landrgr1
#	Modification time:	28. 01. 2015 13:52

#	Program:	corina 3.48 0006  22.01.2010

@<TRIPOS>MOLECULE
5739119
  35   36    0    0    0
SMALL
NO_CHARGES


@<TRIPOS>ATOM
   1 O1            -0.0163     1.3475     0.0095 O.3     
   2 O2            -2.4773    -3.4548     0.0063 O.2     
   3 O3             1.4957    -5.4296    -0.0437 O.2     
   4 N4            -1.0917    -0.7988     0.0082 N.pl3   
   5 N5             1.4790    -3.2187    -0.0306 N.am    
   6 N6            -0.5003    -4.4835    -0.0185 N.am    
   7 N7             1.0868    -0.7480    -0.0128 N.2     
   8 C8            -0.6370    -2.1089    -0.0037 C.2     
   9 C9             0.7516    -2.0397    -0.0168 C.2     
  10 C10           -1.2617    -3.3698    -0.0047 C.2     
  11 C11            0.0021    -0.0041     0.0020 C.2     
  12 C12            0.8415    -4.4046    -0.0311 C.2     
  13 C13           -2.4894    -0.3600     0.0189 C.3     
  14 C14            2.9433    -3.1749    -0.0452 C.3     
  15 C15           -1.1458    -5.7986    -0.0191 C.3     
  16 C16            1.2480     2.0135     0.0010 C.3     
  17 C17            1.0303     3.5047     0.0110 C.2     
  18 C18            1.7371     4.2644     0.8106 C.2     
  19 C19            1.5194     5.7556     0.8207 C.3     
  20 H20           -2.8305    -0.2585     1.0492 H       
  21 H21           -2.5722     0.6017    -0.4876 H       
  22 H22           -3.1054    -1.0965    -0.4969 H       
  23 H23            3.3168    -3.1697     0.9788 H       
  24 H24            3.3278    -4.0509    -0.5677 H       
  25 H25            3.2747    -2.2717    -0.5574 H       
  26 H26           -1.3162    -6.1192    -1.0469 H       
  27 H27           -0.5017    -6.5197     0.4843 H       
  28 H28           -2.0996    -5.7356     0.5047 H       
  29 H29            1.8174     1.7235     0.8840 H       
  30 H30            1.8004     1.7330    -0.8959 H       
  31 H31            0.2916     3.9470    -0.6409 H       
  32 H32            2.4758     3.8221     1.4626 H       
  33 H33            2.1929     6.2162     1.5435 H       
  34 H34            1.7207     6.1588    -0.1717 H       
  35 H35            0.4873     5.9702     1.0977 H       
@<TRIPOS>BOND
   1    1   11 1
   2    1   16 1
   3    2   10 2
   4    3   12 2
   5    4    8 1
   6    4   11 1
   7    4   13 1
   8    5    9 1
   9    5   12 am
  10    5   14 1
  11    6   10 am
  12    6   12 am
  13    6   15 1
  14    7    9 1
  15    7   11 2
  16    8    9 2
  17    8   10 1
  18   13   20 1
  19   13   21 1
  20   13   22 1
  21   14   23 1
  22   14   24 1
  23   14   25 1
  24   15   26 1
  25   15   27 1
  26   15   28 1
  27   16   17 1
  28   16   29 1
  29   16   30 1
  30   17   18 2
  31   17   31 1
  32   18   19 1
  33   18   32 1
  34   19   33 1
  35   19   34 1
  36   19   35 1

#	End of record

#	Name: 5737863
#	Creating user name:	landrgr1
#	Creation time:	28. 01. 2015 13:52

#	Modifying user name:	landrgr1
#	Modification time:	28. 01. 2015 13:52

#	Program:	corina 3.48 0006  22.01.2010

@<TRIPOS>MOLECULE
5737863
  56   58    0    0    0
SMALL
NO_CHARGES


@<TRIPOS>ATOM
   1 O1            -1.2087     1.2950    -0.3949 O.3     
   2 O2             0.1420    -0.4540    -0.3961 O.2     
   3 O3            -1.6284    -2.4957    -2.3331 O.2     
   4 O4            -2.7460    -4.7307    -3.1150 O.2     
   5 N5            -1.6415    -2.3540    -0.1160 N.am    
   6 N6            -0.6777    -5.1094    -2.3998 N.am    
   7 C7            -2.1433    -0.9784    -0.1635 C.3     
   8 C8            -2.8853    -0.6609     1.1363 C.3     
   9 C9            -4.1124    -1.5296     1.2393 C.ar    
  10 C10           -0.9861    -0.0269    -0.3267 C.2     
  11 C11           -1.4156    -3.0288    -1.2605 C.2     
  12 C12           -4.0354    -2.7644     1.8561 C.ar    
  13 C13           -5.3163    -1.0893     0.7221 C.ar    
  14 C14           -0.9120    -4.4095    -1.2127 C.2     
  15 C15           -0.6754    -5.0023    -0.0200 C.2     
  16 C16           -0.3219    -6.4293     0.0349 C.ar    
  17 C17           -5.1610    -3.5612     1.9505 C.ar    
  18 C18           -6.4420    -1.8861     0.8166 C.ar    
  19 C19           -6.3637    -3.1231     1.4287 C.ar    
  20 C20            0.2775    -6.9615     1.1812 C.ar    
  21 C21           -0.5886    -7.2622    -1.0567 C.ar    
  22 C22            0.3442    -9.1162     0.1381 C.ar    
  23 C23           -1.6749    -5.2783    -3.2905 C.2     
  24 C24            0.6058    -8.3000     1.2248 C.ar    
  25 C25           -0.2542    -8.5985    -0.9974 C.ar    
  26 C26           -1.4663    -6.1295    -4.4808 C.ar    
  27 C27            0.7069   -10.5779     0.1942 C.3     
  28 C28           -2.4564    -6.2190    -5.4608 C.ar    
  29 C29           -0.2761    -6.8428    -4.6328 C.ar    
  30 C30           -2.2551    -7.0148    -6.5696 C.ar    
  31 C31           -0.0876    -7.6349    -5.7463 C.ar    
  32 C32           -1.0752    -7.7233    -6.7114 C.ar    
  33 H33           -2.8251    -0.8693    -1.0070 H       
  34 H34           -2.2301    -0.8554     1.9855 H       
  35 H35           -3.1814     0.3881     1.1387 H       
  36 H36           -1.4719    -2.7790     0.7393 H       
  37 H37           -3.0957    -3.1066     2.2638 H       
  38 H38           -5.3776    -0.1225     0.2445 H       
  39 H39           -0.7460    -4.4280     0.8919 H       
  40 H40           -5.1006    -4.5262     2.4317 H       
  41 H41           -7.3826    -1.5419     0.4128 H       
  42 H42            0.2026    -5.4736    -2.5824 H       
  43 H43           -7.2431    -3.7458     1.5021 H       
  44 H44            0.4828    -6.3257     2.0297 H       
  45 H45           -1.0555    -6.8596    -1.9434 H       
  46 H46            1.0686    -8.7124     2.1092 H       
  47 H47           -0.4598    -9.2430    -1.8393 H       
  48 H48           -0.4350     1.8656    -0.4996 H       
  49 H49           -0.1338   -11.1457     0.5929 H       
  50 H50            0.9417   -10.9327    -0.8093 H       
  51 H51            1.5749   -10.7124     0.8395 H       
  52 H52           -3.3780    -5.6668    -5.3511 H       
  53 H53            0.4957    -6.7743    -3.8804 H       
  54 H54           -3.0204    -7.0853    -7.3283 H       
  55 H55            0.8330    -8.1870    -5.8653 H       
  56 H56           -0.9228    -8.3452    -7.5811 H       
@<TRIPOS>BOND
   1    1   10 1
   2    1   48 1
   3    2   10 2
   4    3   11 2
   5    4   23 2
   6    5    7 1
   7    5   11 am
   8    5   36 1
   9    6   14 1
  10    6   23 am
  11    6   42 1
  12    7    8 1
  13    7   10 1
  14    7   33 1
  15    8    9 1
  16    8   34 1
  17    8   35 1
  18    9   12 ar
  19    9   13 ar
  20   11   14 1
  21   12   17 ar
  22   12   37 1
  23   13   18 ar
  24   13   38 1
  25   14   15 2
  26   15   16 1
  27   15   39 1
  28   16   20 ar
  29   16   21 ar
  30   17   19 ar
  31   17   40 1
  32   18   19 ar
  33   18   41 1
  34   19   43 1
  35   20   24 ar
  36   20   44 1
  37   21   25 ar
  38   21   45 1
  39   22   24 ar
  40   22   25 ar
  41   22   27 1
  42   23   26 1
  43   24   46 1
  44   25   47 1
  45   26   28 ar
  46   26   29 ar
  47   27   49 1
  48   27   50 1
  49   27   51 1
  50   28   30 ar
  51   28   52 1
  52   29   31 ar
  53   29   53 1
  54   30   32 ar
  55   30   54 1
  56   31   32 ar
  57   31   55 1
  58   32   56 1

#	End of record

#	Name: 5737746
#	Creating user name:	landrgr1
#	Creation time:	28. 01. 2015 13:52

#	Modifying user name:	landrgr1
#	Modification time:	28. 01. 2015 13:52

#	Program:	corina 3.48 0006  22.01.2010

@<TRIPOS>MOLECULE
5737746
  51   51    0    0    0
SMALL
NO_CHARGES


@<TRIPOS>ATOM
   1 O1            -2.0810    -4.6758    -0.0032 O.2     
   2 N2            -0.0178     1.4648     0.0101 N.3     
   3 N3            -2.7870    -2.5706     0.0149 N.am    
   4 N4            -5.4217    -3.5580     0.0347 N.ar    
   5 C5            -1.4333    -0.5336     0.0129 C.3     
   6 C6             0.0021    -0.0041     0.0020 C.3     
   7 C7            -1.4126    -2.0635     0.0045 C.3     
   8 C8             1.3463     2.0098    -0.0000 C.3     
   9 C9             1.2856     3.5156     0.0087 C.ar    
  10 C10            1.2693     4.1998     1.2097 C.ar    
  11 C11            1.2521     4.2128    -1.1845 C.ar    
  12 C12           -3.0152    -3.8988     0.0099 C.2     
  13 C13            1.2136     5.5810     1.2177 C.ar    
  14 C14            1.1965     5.5940    -1.1765 C.ar    
  15 C15            1.1748     6.2780     0.0246 C.ar    
  16 C16           -4.4053    -4.4117     0.0204 C.ar    
  17 C17           -4.6345    -5.7854     0.0157 C.ar    
  18 C18           -5.9405    -6.2502     0.0261 C.ar    
  19 C19           -6.6699    -3.9715     0.0448 C.ar    
  20 C20           -6.9716    -5.3243     0.0409 C.ar    
  21 H21           -1.9435    -0.1821     0.9097 H       
  22 H22           -1.9605    -0.1726    -0.8702 H       
  23 H23            0.5123    -0.3556    -0.8948 H       
  24 H24            0.5293    -0.3651     0.8851 H       
  25 H25           -0.8854    -2.4246     0.8875 H       
  26 H26           -0.9024    -2.4150    -0.8923 H       
  27 H27           -0.5563     1.8234    -0.7642 H       
  28 H28            1.8828     1.6627     0.8830 H       
  29 H29            1.8658     1.6723    -0.8968 H       
  30 H30           -3.5327    -1.9503     0.0253 H       
  31 H31            1.2996     3.6552     2.1419 H       
  32 H32            1.2697     3.6785    -2.1229 H       
  33 H33            1.2001     6.1155     2.1560 H       
  34 H34            1.1706     6.1388    -2.1087 H       
  35 H35            1.1309     7.3571     0.0308 H       
  36 H36           -3.8065    -6.4787     0.0037 H       
  37 H37           -6.1497    -7.3097     0.0225 H       
  38 H38           -7.4709    -3.2472     0.0567 H       
  39 H39           -8.0001    -5.6536     0.0490 H       
  40 O40           10.4417    18.3557     7.1767 O.3     
  41 O41            7.9609    12.8078     7.1706 O.3     
  42 O42           11.5198    16.4155     7.1560 O.2     
  43 O43            6.8828    14.7480     7.1914 O.2     
  44 C44            9.1922    16.2532     7.1774 C.2     
  45 C45            9.2104    14.9103     7.1700 C.2     
  46 C46           10.4600    17.0084     7.1693 C.2     
  47 C47            7.9426    14.1552     7.1780 C.2     
  48 H48            8.2497    16.7804     7.1892 H       
  49 H49           10.1529    14.3831     7.1582 H       
  50 H50           11.2972    18.8064     7.1710 H       
  51 H51            7.1054    12.3571     7.1764 H       
@<TRIPOS>BOND
   1    1   12 2
   2    2    6 1
   3    2    8 1
   4    2   27 1
   5    3    7 1
   6    3   12 am
   7    3   30 1
   8    4   16 ar
   9    4   19 ar
  10    5    6 1
  11    5    7 1
  12    5   21 1
  13    5   22 1
  14    6   23 1
  15    6   24 1
  16    7   25 1
  17    7   26 1
  18    8    9 1
  19    8   28 1
  20    8   29 1
  21    9   10 ar
  22    9   11 ar
  23   10   13 ar
  24   10   31 1
  25   11   14 ar
  26   11   32 1
  27   12   16 1
  28   13   15 ar
  29   13   33 1
  30   14   15 ar
  31   14   34 1
  32   15   35 1
  33   16   17 ar
  34   17   18 ar
  35   17   36 1
  36   18   20 ar
  37   18   37 1
  38   19   20 ar
  39   19   38 1
  40   20   39 1
  41   40   46 1
  42   40   50 1
  43   41   47 1
  44   41   51 1
  45   42   46 2
  46   43   47 2
  47   44   45 2
  48   44   46 1
  49   44   48 1
  50   45   47 1
  51   45   49 1

#	End of record

#	Name: 5737667
#	Creating user name:	landrgr1
#	Creation time:	28. 01. 2015 13:52

#	Modifying user name:	landrgr1
#	Modification time:	28. 01. 2015 13:52

#	Program:	corina 3.48 0006  22.01.2010

@<TRIPOS>MOLECULE
5737667
  47   49    0    0    0
SMALL
NO_CHARGES


@<TRIPOS>ATOM
   1 S1            -0.8799    -0.8739    -2.7685 S.3     
   2 O2            -3.2928    -1.2155    -0.0749 O.2     
   3 O3            -7.2111     4.9836     0.7182 O.3     
   4 O4            -5.1754     6.8344     0.7214 O.3     
   5 N5            -1.1099    -0.8090     0.0090 N.am    
   6 N6             0.8559    -1.4399    -0.7338 N.2     
   7 C7            -0.3179    -1.0684     1.1204 C.ar    
   8 C8             0.9329    -1.4698     0.6235 C.ar    
   9 C9            -0.3399    -1.0530    -1.1009 C.2     
  10 C10           -0.5321    -1.0049     2.4874 C.ar    
  11 C11           -2.3942    -0.4003     0.0186 C.2     
  12 C12            1.9529    -1.8019     1.5177 C.ar    
  13 C13            0.4863    -1.3369     3.3589 C.ar    
  14 C14            1.7231    -1.7329     2.8744 C.ar    
  15 C15           -2.6982     0.9793     0.1377 C.2     
  16 C16           -4.2987     2.8106     0.3732 C.ar    
  17 C17           -3.9836     1.3806     0.2498 C.2     
  18 C18           -5.6296     3.2287     0.4894 C.ar    
  19 C19           -5.9193     4.5737     0.6056 C.ar    
  20 C20           -3.2685     3.7583     0.3808 C.ar    
  21 C21           -4.8877     5.5120     0.6070 C.ar    
  22 C22            0.6303    -1.3568    -3.6415 C.3     
  23 C23           -3.5667     5.0979     0.4971 C.ar    
  24 C24            0.3983    -1.2774    -5.1284 C.2     
  25 C25           -8.2169     3.9686     0.7092 C.3     
  26 C26           -4.0712     7.7415     0.7158 C.3     
  27 C27            1.0626    -0.4086    -5.8495 C.2     
  28 H28           -1.4933    -0.6962     2.8708 H       
  29 H29            2.9186    -2.1121     1.1469 H       
  30 H30            0.3183    -1.2867     4.4246 H       
  31 H31            2.5122    -1.9902     3.5655 H       
  32 H32           -1.9025     1.7094     0.1389 H       
  33 H33           -4.7793     0.6504     0.2486 H       
  34 H34           -6.4278     2.5011     0.4879 H       
  35 H35           -2.2402     3.4392     0.2958 H       
  36 H36           -2.7711     5.8282     0.5031 H       
  37 H37            1.4415    -0.6837    -3.3639 H       
  38 H38            0.8965    -2.3782    -3.3694 H       
  39 H39           -0.3158    -1.9366    -5.5995 H       
  40 H40           -9.1997     4.4300     0.8057 H       
  41 H41           -8.1660     3.4150    -0.2284 H       
  42 H42           -8.0523     3.2865     1.5433 H       
  43 H43           -3.5232     7.6410    -0.2211 H       
  44 H44           -4.4394     8.7627     0.8135 H       
  45 H45           -3.4088     7.5126     1.5506 H       
  46 H46            0.8963    -0.3517    -6.9151 H       
  47 H47            1.7767     0.2507    -5.3784 H       
@<TRIPOS>BOND
   1    1    9 1
   2    1   22 1
   3    2   11 2
   4    3   19 1
   5    3   25 1
   6    4   21 1
   7    4   26 1
   8    5    7 1
   9    5    9 1
  10    5   11 am
  11    6    8 1
  12    6    9 2
  13    7    8 ar
  14    7   10 ar
  15    8   12 ar
  16   10   13 ar
  17   10   28 1
  18   11   15 1
  19   12   14 ar
  20   12   29 1
  21   13   14 ar
  22   13   30 1
  23   14   31 1
  24   15   17 2
  25   15   32 1
  26   16   17 1
  27   16   18 ar
  28   16   20 ar
  29   17   33 1
  30   18   19 ar
  31   18   34 1
  32   19   21 ar
  33   20   23 ar
  34   20   35 1
  35   21   23 ar
  36   22   24 1
  37   22   37 1
  38   22   38 1
  39   23   36 1
  40   24   27 2
  41   24   39 1
  42   25   40 1
  43   25   41 1
  44   25   42 1
  45   26   43 1
  46   26   44 1
  47   26   45 1
  48   27   46 1
  49   27   47 1

#	End of record

#	Name: 5737621
#	Creating user name:	landrgr1
#	Creation time:	28. 01. 2015 13:52

#	Modifying user name:	landrgr1
#	Modification time:	28. 01. 2015 13:52

#	Program:	corina 3.48 0006  22.01.2010

@<TRIPOS>MOLECULE
5737621
  26   27    0    0    0
SMALL
NO_CHARGES


@<TRIPOS>ATOM
   1 Cl1            1.0737    -3.1279    -1.7618 Cl      
   2 O2             2.2143     1.4865     0.3772 O.2     
   3 O3            -2.2110     1.3868     0.2985 O.2     
   4 O4            -0.3305     5.3833    -0.0037 O.2     
   5 N5            -0.0169     1.4094     0.3445 N.am    
   6 N6            -1.3036     3.3794     0.1465 N.am    
   7 N7             3.4723     3.6861     0.0872 N.pl3   
   8 C8            -0.0039     0.0131     0.4644 C.ar    
   9 C9             1.1538     2.0786     0.3073 C.2     
  10 C10            1.1134     3.5461     0.1803 C.2     
  11 C11           -1.1923     2.0487     0.2638 C.2     
  12 C12           -0.2165     4.1767     0.1028 C.2     
  13 C13            0.4699    -0.7699    -0.5790 C.ar    
  14 C14           -0.4597    -0.5892     1.6297 C.ar    
  15 C15            0.4814    -2.1471    -0.4577 C.ar    
  16 C16           -0.4459    -1.9653     1.7456 C.ar    
  17 C17            2.2725     4.2986     0.1362 C.2     
  18 C18            0.0207    -2.7441     0.7026 C.ar    
  19 H19           -2.1862     3.7781     0.0922 H       
  20 H20            0.8288    -0.3039    -1.4849 H       
  21 H21           -0.8243     0.0181     2.4449 H       
  22 H22           -0.8004    -2.4338     2.6518 H       
  23 H23            2.2166     5.3772     0.1411 H       
  24 H24            0.0298    -3.8200     0.7954 H       
  25 H25            3.5350     2.7655    -0.2118 H       
  26 H26            4.2730     4.1660     0.3510 H       
@<TRIPOS>BOND
   1    1   15 1
   2    2    9 2
   3    3   11 2
   4    4   12 2
   5    5    8 1
   6    5    9 am
   7    5   11 am
   8    6   11 am
   9    6   12 am
  10    6   19 1
  11    7   17 1
  12    7   25 1
  13    7   26 1
  14    8   13 ar
  15    8   14 ar
  16    9   10 1
  17   10   12 1
  18   10   17 2
  19   13   15 ar
  20   13   20 1
  21   14   16 ar
  22   14   21 1
  23   15   18 ar
  24   16   18 ar
  25   16   22 1
  26   17   23 1
  27   18   24 1

#	End of record

#	Name: 5737580
#	Creating user name:	landrgr1
#	Creation time:	28. 01. 2015 13:52

#	Modifying user name:	landrgr1
#	Modification time:	28. 01. 2015 13:52

#	Program:	corina 3.48 0006  22.01.2010

@<TRIPOS>MOLECULE
5737580
  60   62    0    0    0
SMALL
NO_CHARGES


@<TRIPOS>ATOM
   1 S1             0.9783    -1.0051    -2.4345 S.2     
   2 O2            -0.3621    -5.0330     0.1473 O.2     
   3 O3             1.7233     1.3482     1.5474 O.3     
   4 O4             1.4223    -6.3234    -5.8053 O.3     
   5 O5            -0.8673     0.4501     5.7566 O.3     
   6 O6            -3.7215     1.0745     1.9904 O.3     
   7 O7            -2.8019     1.8999     4.4467 O.3     
   8 O8             2.4009    -0.6335     0.8420 O.2     
   9 N9             0.0918    -1.5988     0.0569 N.am    
  10 N10            0.3087    -3.3572    -1.2717 N.am    
  11 C11           -0.2913    -2.7185     0.8064 C.2     
  12 C12            0.4398    -2.0256    -1.1698 C.2     
  13 C13           -0.1354    -3.8636    -0.1035 C.2     
  14 C14            0.1049    -0.2103     0.5241 C.3     
  15 C15            0.5909    -4.1097    -2.4215 C.ar    
  16 C16           -0.7149    -2.7418     2.0956 C.2     
  17 C17           -1.2610    -1.5255     2.7111 C.ar    
  18 C18            1.5009    -5.1563    -2.3604 C.ar    
  19 C19           -0.0439    -3.8116    -3.6196 C.ar    
  20 C20           -2.2495    -0.7872     2.0495 C.ar    
  21 C21           -0.7988    -1.1045     3.9638 C.ar    
  22 C22            1.4938     0.1523     0.9827 C.2     
  23 C23           -1.3156     0.0403     4.5399 C.ar    
  24 C24           -2.7613     0.3565     2.6323 C.ar    
  25 C25            1.7784    -5.8967    -3.4924 C.ar    
  26 C26            0.2343    -4.5526    -4.7511 C.ar    
  27 C27            1.1484    -5.5945    -4.6909 C.ar    
  28 C28           -2.2953     0.7747     3.8763 C.ar    
  29 C29            0.7373    -5.9571    -7.0048 C.3     
  30 C30            3.0852     1.6294     1.9651 C.3     
  31 C31            0.0527    -0.4096     6.4323 C.3     
  32 C32           -4.2356     0.5283     0.7741 C.3     
  33 C33           -2.1393     3.1313     4.1523 C.3     
  34 C34            1.1713    -6.8828    -8.1430 C.3     
  35 H35           -0.1927     0.4499    -0.2905 H       
  36 H36           -0.5924    -0.0998     1.3546 H       
  37 H37           -0.6502    -3.6549     2.6688 H       
  38 H38            1.9920    -5.3912    -1.4276 H       
  39 H39           -0.7555    -3.0006    -3.6666 H       
  40 H40           -2.6114    -1.1108     1.0848 H       
  41 H41           -0.0396    -1.6738     4.4793 H       
  42 H42            2.4863    -6.7109    -3.4449 H       
  43 H43           -0.2598    -4.3210    -5.6831 H       
  44 H44           -0.3379    -6.0490    -6.8517 H       
  45 H45            0.9809    -4.9262    -7.2619 H       
  46 H46            3.7475     1.5818     1.1007 H       
  47 H47            3.1321     2.6260     2.4043 H       
  48 H48            3.3984     0.8917     2.7039 H       
  49 H49            0.9797    -0.4697     5.8620 H       
  50 H50            0.2619    -0.0099     7.4246 H       
  51 H51           -0.3816    -1.4049     6.5257 H       
  52 H52           -3.4432     0.4976     0.0262 H       
  53 H53           -4.6029    -0.4816     0.9560 H       
  54 H54           -5.0526     1.1525     0.4123 H       
  55 H55           -1.1031     3.0750     4.4856 H       
  56 H56           -2.1661     3.3103     3.0774 H       
  57 H57           -2.6435     3.9478     4.6693 H       
  58 H58            0.6489    -6.6034    -9.0579 H       
  59 H59            2.2466    -6.7909    -8.2961 H       
  60 H60            0.9277    -7.9137    -7.8859 H       
@<TRIPOS>BOND
   1    1   12 2
   2    2   13 2
   3    3   22 1
   4    3   30 1
   5    4   27 1
   6    4   29 1
   7    5   23 1
   8    5   31 1
   9    6   24 1
  10    6   32 1
  11    7   28 1
  12    7   33 1
  13    8   22 2
  14    9   11 1
  15    9   12 am
  16    9   14 1
  17   10   12 am
  18   10   13 am
  19   10   15 1
  20   11   13 1
  21   11   16 2
  22   14   22 1
  23   14   35 1
  24   14   36 1
  25   15   18 ar
  26   15   19 ar
  27   16   17 1
  28   16   37 1
  29   17   20 ar
  30   17   21 ar
  31   18   25 ar
  32   18   38 1
  33   19   26 ar
  34   19   39 1
  35   20   24 ar
  36   20   40 1
  37   21   23 ar
  38   21   41 1
  39   23   28 ar
  40   24   28 ar
  41   25   27 ar
  42   25   42 1
  43   26   27 ar
  44   26   43 1
  45   29   34 1
  46   29   44 1
  47   29   45 1
  48   30   46 1
  49   30   47 1
  50   30   48 1
  51   31   49 1
  52   31   50 1
  53   31   51 1
  54   32   52 1
  55   32   53 1
  56   32   54 1
  57   33   55 1
  58   33   56 1
  59   33   57 1
  60   34   58 1
  61   34   59 1
  62   34   60 1

#	End of record

#	Name: 5737472
#	Creating user name:	landrgr1
#	Creation time:	28. 01. 2015 13:52

#	Modifying user name:	landrgr1
#	Modification time:	28. 01. 2015 13:52

#	Program:	corina 3.48 0006  22.01.2010

@<TRIPOS>MOLECULE
5737472
  66   69    0    0    0
SMALL
NO_CHARGES


@<TRIPOS>ATOM
   1 O1             0.0860     0.9675    -0.0372 O.3     
   2 O2            -2.5528    -2.9012    -0.7967 O.3     
   3 O3             3.3008    -1.1994     0.9333 O.2     
   4 O4             0.2190     3.7105    -0.5638 O.3     
   5 O5             2.4223     3.5898    -0.3151 O.2     
   6 O6             6.4293     2.4185     2.5722 O.3     
   7 O7             7.3993     3.5416     0.2550 O.3     
   8 N8            -2.4952     0.2170    -2.1510 N.3     
   9 C9            -3.7996     0.7767    -2.5276 C.3     
  10 C10           -3.8630     0.9484    -4.0470 C.3     
  11 C11           -1.4006     1.1189    -2.5314 C.3     
  12 C12           -2.7365     1.8824    -4.4977 C.3     
  13 C13           -1.3924     1.3008    -4.0509 C.3     
  14 C14           -2.4491    -0.0906    -0.7153 C.3     
  15 C15           -4.9113    -0.1720    -2.0750 C.3     
  16 C16           -1.2501    -0.9563    -0.4253 C.ar    
  17 C17           -0.0316    -0.3722    -0.1019 C.ar    
  18 C18           -1.3607    -2.3350    -0.4802 C.ar    
  19 C19            1.0747    -1.2027     0.1580 C.ar    
  20 C20           -0.2598    -3.1480    -0.2134 C.ar    
  21 C21            0.9462    -2.5918     0.1027 C.ar    
  22 C22            2.3644    -0.5663     0.4800 C.2     
  23 C23            2.4539     0.8905     0.2196 C.2     
  24 C24            1.2832     1.5735    -0.0343 C.2     
  25 C25            3.7568     1.5886     0.2315 C.ar    
  26 C26            1.3492     3.0201    -0.3125 C.2     
  27 C27            4.4926     1.6770     1.4151 C.ar    
  28 C28            4.2573     2.1562    -0.9423 C.ar    
  29 C29            5.7105     2.3303     1.4211 C.ar    
  30 C30            5.4732     2.8062    -0.9298 C.ar    
  31 C31            6.2017     2.8991     0.2475 C.ar    
  32 C32            0.3595     5.1311    -0.8292 C.3     
  33 C33           -1.0197     5.7400    -1.0899 C.3     
  34 C34            5.8652     1.8133     3.7373 C.3     
  35 C35            7.8429     4.1014    -0.9827 C.3     
  36 H36           -3.9313     1.7460    -2.0468 H       
  37 H37           -3.7451    -0.0225    -4.5282 H       
  38 H38           -4.8253     1.3784    -4.3248 H       
  39 H39           -1.5436     2.0866    -2.0506 H       
  40 H40           -0.4502     0.6915    -2.2116 H       
  41 H41           -2.7511     1.9732    -5.5838 H       
  42 H42           -2.8759     2.8651    -4.0472 H       
  43 H43           -0.5895     1.9825    -4.3315 H       
  44 H44           -1.2356     0.3354    -4.5321 H       
  45 H45           -2.3737     0.8366    -0.1473 H       
  46 H46           -3.3575    -0.6200    -0.4278 H       
  47 H47           -4.9479    -0.1954    -0.9858 H       
  48 H48           -5.8679     0.1778    -2.4631 H       
  49 H49           -4.7102    -1.1742    -2.4534 H       
  50 H50           -0.3615    -4.2224    -0.2569 H       
  51 H51            1.7975    -3.2237     0.3089 H       
  52 H52           -2.6790    -3.0488    -1.7440 H       
  53 H53            4.1106     1.2361     2.3240 H       
  54 H54            3.6921     2.0856    -1.8599 H       
  55 H55            5.8592     3.2444    -1.8384 H       
  56 H56            0.8148     5.6185     0.0329 H       
  57 H57            0.9921     5.2763    -1.7048 H       
  58 H58           -1.4751     5.2526    -1.9519 H       
  59 H59           -1.6524     5.5948    -0.2142 H       
  60 H60           -0.9143     6.8065    -1.2891 H       
  61 H61            5.7245     0.7469     3.5608 H       
  62 H62            6.5380     1.9560     4.5828 H       
  63 H63            4.9026     2.2753     3.9568 H       
  64 H64            7.9400     3.3096    -1.7255 H       
  65 H65            7.1177     4.8376    -1.3291 H       
  66 H66            8.8095     4.5839    -0.8375 H       
@<TRIPOS>BOND
   1    1   17 1
   2    1   24 1
   3    2   18 1
   4    2   52 1
   5    3   22 2
   6    4   26 1
   7    4   32 1
   8    5   26 2
   9    6   29 1
  10    6   34 1
  11    7   31 1
  12    7   35 1
  13    8    9 1
  14    8   11 1
  15    8   14 1
  16    9   10 1
  17    9   15 1
  18    9   36 1
  19   10   12 1
  20   10   37 1
  21   10   38 1
  22   11   13 1
  23   11   39 1
  24   11   40 1
  25   12   13 1
  26   12   41 1
  27   12   42 1
  28   13   43 1
  29   13   44 1
  30   14   16 1
  31   14   45 1
  32   14   46 1
  33   15   47 1
  34   15   48 1
  35   15   49 1
  36   16   17 ar
  37   16   18 ar
  38   17   19 ar
  39   18   20 ar
  40   19   21 ar
  41   19   22 1
  42   20   21 ar
  43   20   50 1
  44   21   51 1
  45   22   23 1
  46   23   24 2
  47   23   25 1
  48   24   26 1
  49   25   27 ar
  50   25   28 ar
  51   27   29 ar
  52   27   53 1
  53   28   30 ar
  54   28   54 1
  55   29   31 ar
  56   30   31 ar
  57   30   55 1
  58   32   33 1
  59   32   56 1
  60   32   57 1
  61   33   58 1
  62   33   59 1
  63   33   60 1
  64   34   61 1
  65   34   62 1
  66   34   63 1
  67   35   64 1
  68   35   65 1
  69   35   66 1

#	End of record

#	Name: 5736801
#	Creating user name:	landrgr1
#	Creation time:	28. 01. 2015 13:52

#	Modifying user name:	landrgr1
#	Modification time:	28. 01. 2015 13:52

#	Program:	corina 3.48 0006  22.01.2010

@<TRIPOS>MOLECULE
5736801
  57   60    0    0    0
SMALL
NO_CHARGES


@<TRIPOS>ATOM
   1 Cl1            1.5273   -10.4276    -9.4063 Cl      
   2 Cl2           -3.0625   -11.7875    -6.9080 Cl      
   3 O3             0.2131    -0.1246     0.7821 O.3     
   4 O4             4.3345    -7.1587    -6.9626 O.2     
   5 O5             3.7732     2.7817    -3.8491 O.2     
   6 O6             2.6158     2.4103    -2.1248 O.2     
   7 N7             3.8614    -3.5624    -3.8738 N.3     
   8 N8             3.7649    -6.0521    -5.1217 N.am    
   9 N9             1.9198     0.1187    -1.4351 N.3     
  10 N10            3.2591     1.9965    -3.0728 N.pl3   
  11 C11            4.7675    -3.8333    -4.9979 C.3     
  12 C12            2.5589    -4.2124    -4.0707 C.3     
  13 C13            5.0496    -5.3377    -5.0711 C.3     
  14 C14            2.7504    -5.7324    -4.1059 C.3     
  15 C15            3.7099    -2.1885    -3.6730 C.ar    
  16 C16            2.7436    -0.3556    -2.4584 C.ar    
  17 C17            2.8910    -1.7216    -2.6549 C.ar    
  18 C18            2.4517    -0.2527    -0.1158 C.3     
  19 C19            0.5428    -0.3699    -1.5980 C.3     
  20 C20            4.3838    -1.2876    -4.4892 C.ar    
  21 C21            3.4160     0.5397    -3.2813 C.ar    
  22 C22            1.5532     0.3363     0.9749 C.3     
  23 C23           -0.3365     0.2203    -0.4924 C.3     
  24 C24            3.5234    -6.9747    -6.0740 C.2     
  25 C25            4.2349     0.0713    -4.2909 C.ar    
  26 C26            2.2861    -7.7553    -6.0396 C.2     
  27 C27            1.9931    -8.5998    -7.0498 C.2     
  28 C28            0.7493    -9.3845    -7.0152 C.ar    
  29 C29            0.4418   -10.2618    -8.0617 C.ar    
  30 C30           -0.1294    -9.2619    -5.9335 C.ar    
  31 C31           -0.7273   -10.9944    -8.0216 C.ar    
  32 C32           -1.2926    -9.9999    -5.9077 C.ar    
  33 C33           -1.5940   -10.8626    -6.9498 C.ar    
  34 H34            4.3024    -3.5048    -5.9273 H       
  35 H35            5.7033    -3.2946    -4.8488 H       
  36 H36            1.8929    -3.9487    -3.2491 H       
  37 H37            2.1245    -3.8787    -5.0130 H       
  38 H38            5.6071    -5.6492    -4.1878 H       
  39 H39            5.6270    -5.5588    -5.9688 H       
  40 H40            1.8078    -6.2143    -4.3654 H       
  41 H41            3.0870    -6.0817    -3.1298 H       
  42 H42            2.3692    -2.4195    -2.0170 H       
  43 H43            2.4715    -1.3386    -0.0239 H       
  44 H44            3.4622     0.1409    -0.0068 H       
  45 H45            0.1600    -0.0618    -2.5709 H       
  46 H46            0.5322    -1.4577    -1.5298 H       
  47 H47            5.0248    -1.6504    -5.2790 H       
  48 H48            1.5757     1.4245     0.9167 H       
  49 H49            1.9109     0.0161     1.9535 H       
  50 H50           -1.3454    -0.1839    -0.5751 H       
  51 H51           -0.3689     1.3051    -0.5933 H       
  52 H52            4.7599     0.7692    -4.9262 H       
  53 H53            1.6076    -7.6553    -5.2053 H       
  54 H54            2.6716    -8.6999    -7.8841 H       
  55 H55            0.1037    -8.5905    -5.1202 H       
  56 H56           -0.9667   -11.6716    -8.8281 H       
  57 H57           -1.9715    -9.9059    -5.0730 H       
@<TRIPOS>BOND
   1    1   29 1
   2    2   33 1
   3    3   22 1
   4    3   23 1
   5    4   24 2
   6    5   10 2
   7    6   10 2
   8    7   11 1
   9    7   12 1
  10    7   15 1
  11    8   13 1
  12    8   14 1
  13    8   24 am
  14    9   16 1
  15    9   18 1
  16    9   19 1
  17   10   21 1
  18   11   13 1
  19   11   34 1
  20   11   35 1
  21   12   14 1
  22   12   36 1
  23   12   37 1
  24   13   38 1
  25   13   39 1
  26   14   40 1
  27   14   41 1
  28   15   17 ar
  29   15   20 ar
  30   16   17 ar
  31   16   21 ar
  32   17   42 1
  33   18   22 1
  34   18   43 1
  35   18   44 1
  36   19   23 1
  37   19   45 1
  38   19   46 1
  39   20   25 ar
  40   20   47 1
  41   21   25 ar
  42   22   48 1
  43   22   49 1
  44   23   50 1
  45   23   51 1
  46   24   26 1
  47   25   52 1
  48   26   27 2
  49   26   53 1
  50   27   28 1
  51   27   54 1
  52   28   29 ar
  53   28   30 ar
  54   29   31 ar
  55   30   32 ar
  56   30   55 1
  57   31   33 ar
  58   31   56 1
  59   32   33 ar
  60   32   57 1

#	End of record

#	Name: 5736510
#	Creating user name:	landrgr1
#	Creation time:	28. 01. 2015 13:52

#	Modifying user name:	landrgr1
#	Modification time:	28. 01. 2015 13:52

#	Program:	corina 3.48 0006  22.01.2010

@<TRIPOS>MOLECULE
5736510
  45   44    0    0    0
SMALL
NO_CHARGES


@<TRIPOS>ATOM
   1 Cl1            0.0000     0.0000     0.0000 Cl      
   2 H2             0.0000     1.3700     0.0000 H       
   3 O3            10.0832    10.0833     8.9191 O.3     
   4 O4            14.3054    14.6369     7.4748 O.3     
   5 O5            12.2396    10.2979     8.4232 O.2     
   6 N6             8.0042     8.1646     8.3005 N.3     
   7 C7             8.9603     7.9989     9.4035 C.3     
   8 C8             8.4484     7.4359     7.1048 C.3     
   9 C9             6.6564     7.7421     8.7041 C.3     
  10 C10           10.2837     8.6733     9.0369 C.3     
  11 C11            7.6723     7.9364     5.8850 C.3     
  12 C12            6.0339     8.8127     9.6025 C.3     
  13 C13           11.1600    10.8305     8.5981 C.2     
  14 C14           11.9797    14.4408     8.0051 C.ar    
  15 C15           11.0331    12.2361     8.4647 C.2     
  16 C16           12.1112    12.9843     8.1433 C.2     
  17 C17           13.0975    15.2229     7.6712 C.ar    
  18 C18           10.7390    15.0574     8.1996 C.ar    
  19 C19           12.9608    16.5959     7.5437 C.ar    
  20 C20           10.6235    16.4241     8.0683 C.ar    
  21 C21           11.7305    17.1916     7.7448 C.ar    
  22 C22           15.3963    15.4963     7.1378 C.3     
  23 H23            8.5566     8.4574    10.3062 H       
  24 H24            9.1304     6.9368     9.5803 H       
  25 H25            9.5143     7.6047     6.9516 H       
  26 H26            8.2651     6.3700     7.2399 H       
  27 H27            6.0372     7.6069     7.8173 H       
  28 H28            6.7191     6.8009     9.2504 H       
  29 H29           10.6428     8.2768     8.0872 H       
  30 H30           11.0205     8.4749     9.8153 H       
  31 H31            6.6053     7.7797     6.0439 H       
  32 H32            7.8661     8.9994     5.7420 H       
  33 H33            7.9924     7.3864     5.0000 H       
  34 H34            6.0606     9.7756     9.0923 H       
  35 H35            5.0000     8.5465     9.8221 H       
  36 H36            6.5976     8.8789    10.5331 H       
  37 H37           10.0746    12.7089     8.6200 H       
  38 H38           13.0698    12.5115     7.9881 H       
  39 H39            9.8732    14.4631     8.4520 H       
  40 H40           13.8175    17.2014     7.2871 H       
  41 H41            9.6654    16.8993     8.2186 H       
  42 H42           11.6302    18.2623     7.6448 H       
  43 H43           15.5488    16.2206     7.9379 H       
  44 H44           16.3007    14.9018     7.0087 H       
  45 H45           15.1714    16.0220     6.2098 H       
@<TRIPOS>BOND
   1    1    2 1
   2    3   10 1
   3    3   13 1
   4    4   17 1
   5    4   22 1
   6    5   13 2
   7    6    7 1
   8    6    8 1
   9    6    9 1
  10    7   10 1
  11    7   23 1
  12    7   24 1
  13    8   11 1
  14    8   25 1
  15    8   26 1
  16    9   12 1
  17    9   27 1
  18    9   28 1
  19   10   29 1
  20   10   30 1
  21   11   31 1
  22   11   32 1
  23   11   33 1
  24   12   34 1
  25   12   35 1
  26   12   36 1
  27   13   15 1
  28   14   16 1
  29   14   17 ar
  30   14   18 ar
  31   15   16 2
  32   15   37 1
  33   16   38 1
  34   17   19 ar
  35   18   20 ar
  36   18   39 1
  37   19   21 ar
  38   19   40 1
  39   20   21 ar
  40   20   41 1
  41   21   42 1
  42   22   43 1
  43   22   44 1
  44   22   45 1

#	End of record

#	Name: 5735947
#	Creating user name:	landrgr1
#	Creation time:	28. 01. 2015 13:52

#	Modifying user name:	landrgr1
#	Modification time:	28. 01. 2015 13:52

#	Program:	corina 3.48 0006  22.01.2010

@<TRIPOS>MOLECULE
5735947
  45   48    0    0    0
SMALL
NO_CHARGES


@<TRIPOS>ATOM
   1 O1            -0.0078     1.3460     0.2180 O.3     
   2 O2            -1.2252     2.9432     0.7622 O.2     
   3 O3            -0.4946     7.3229     0.0341 O.2     
   4 O4            -3.7201    -4.7182    -1.0871 O.3     
   5 O5            -1.8104    -4.1624    -2.0724 O.2     
   6 N6            -1.2212     5.2167     0.4770 N.am    
   7 N7             0.8851     5.5194    -0.0899 N.am    
   8 C8            -1.1693    -0.8700     0.4222 C.ar    
   9 C9             0.6989     4.1471     0.1204 C.2     
  10 C10            0.0138     0.0031     0.2930 C.2     
  11 C11           -2.1306    -0.6069     1.4024 C.ar    
  12 C12            1.2554     1.8080     0.1063 C.2     
  13 C13           -0.6651     3.9896     0.4884 C.2     
  14 C14            1.6372     3.1633     0.0038 C.2     
  15 C15           -2.5591     5.5007     0.7839 C.ar    
  16 C16           -0.2955     6.1272     0.1321 C.2     
  17 C17            1.3116    -0.4195     0.2293 C.2     
  18 C18           -1.3338    -1.9562    -0.4370 C.ar    
  19 C19            2.1107     0.7205     0.1104 C.2     
  20 C20           -2.4537    -2.7749    -0.3076 C.ar    
  21 C21           -3.2375    -1.4230     1.5247 C.ar    
  22 C22           -1.9582     0.5698     2.3279 C.3     
  23 C23           -3.4037    -2.5031     0.6808 C.ar    
  24 C24           -3.0206     6.8093     0.7381 C.ar    
  25 C25           -3.4268     4.4732     1.1287 C.ar    
  26 C26           -4.3396     7.0859     1.0405 C.ar    
  27 C27           -4.7447     4.7561     1.4301 C.ar    
  28 C28           -5.2000     6.0612     1.3892 C.ar    
  29 C29           -2.6368    -3.9276    -1.2136 C.2     
  30 H30            2.6719     3.4215    -0.1669 H       
  31 H31            1.7124     5.9522    -0.3530 H       
  32 H32            1.6553    -1.4427     0.2646 H       
  33 H33           -0.5968    -2.1615    -1.1993 H       
  34 H34            3.1877     0.7475     0.0358 H       
  35 H35           -3.9768    -1.2157     2.2841 H       
  36 H36           -4.2724    -3.1369     0.7818 H       
  37 H37           -2.4288     1.4495     1.8888 H       
  38 H38           -2.4253     0.3488     3.2876 H       
  39 H39           -0.8957     0.7624     2.4768 H       
  40 H40           -2.3488     7.6101     0.4665 H       
  41 H41           -3.0718     3.4538     1.1609 H       
  42 H42           -4.6991     8.1037     1.0050 H       
  43 H43           -5.4203     3.9572     1.6981 H       
  44 H44           -6.2308     6.2800     1.6259 H       
  45 H45           -3.7964    -5.4601    -1.7026 H       
@<TRIPOS>BOND
   1    1   10 1
   2    1   12 1
   3    2   13 2
   4    3   16 2
   5    4   29 1
   6    4   45 1
   7    5   29 2
   8    6   13 am
   9    6   15 1
  10    6   16 am
  11    7    9 1
  12    7   16 am
  13    7   31 1
  14    8   10 1
  15    8   11 ar
  16    8   18 ar
  17    9   13 1
  18    9   14 2
  19   10   17 2
  20   11   21 ar
  21   11   22 1
  22   12   14 1
  23   12   19 2
  24   14   30 1
  25   15   24 ar
  26   15   25 ar
  27   17   19 1
  28   17   32 1
  29   18   20 ar
  30   18   33 1
  31   19   34 1
  32   20   23 ar
  33   20   29 1
  34   21   23 ar
  35   21   35 1
  36   22   37 1
  37   22   38 1
  38   22   39 1
  39   23   36 1
  40   24   26 ar
  41   24   40 1
  42   25   27 ar
  43   25   41 1
  44   26   28 ar
  45   26   42 1
  46   27   28 ar
  47   27   43 1
  48   28   44 1

#	End of record

#	Name: 5735867
#	Creating user name:	landrgr1
#	Creation time:	28. 01. 2015 13:52

#	Modifying user name:	landrgr1
#	Modification time:	28. 01. 2015 13:52

#	Program:	corina 3.48 0006  22.01.2010

@<TRIPOS>MOLECULE
5735867
  48   50    0    0    0
SMALL
NO_CHARGES


@<TRIPOS>ATOM
   1 O1             0.0869     2.6030     1.4089 O.3     
   2 O2             1.2269     1.3229    -1.0474 O.2     
   3 O3             2.4840     1.5351     0.9269 O.2     
   4 O4            -1.6241     2.8642    -2.6043 O.2     
   5 N5            -0.9915     0.7895    -1.1299 N.am    
   6 N6            -1.6365     1.8843    -4.5947 N.am    
   7 C7            -0.1558     1.2682     0.9600 C.3     
   8 C8            -1.6267     0.9354     1.0594 C.ar    
   9 C9            -2.0534     0.6604    -0.2340 C.ar    
  10 C10            0.1513     1.1412    -0.5170 C.2     
  11 C11            0.6753     0.2719     1.7709 C.3     
  12 C12           -1.1079     0.5616    -2.5724 C.3     
  13 C13           -2.5027     0.8721     2.1190 C.ar    
  14 C14           -3.3872     0.3178    -0.4456 C.ar    
  15 C15            2.1389     0.5969     1.6180 C.2     
  16 C16           -3.8266     0.5310     1.9009 C.ar    
  17 C17           -4.2634     0.2551     0.6185 C.ar    
  18 C18           -1.4746     1.8530    -3.2571 C.2     
  19 C19            3.1036    -0.1841     2.2739 C.2     
  20 C20            4.4284     0.0251     2.0328 C.2     
  21 C21            4.8277     0.8686     0.9776 C.2     
  22 C22            6.1373     1.1734     0.8125 C.2     
  23 C23            6.5540     2.0534    -0.2886 C.ar    
  24 C24            7.9060     2.3708    -0.4626 C.ar    
  25 C25            5.6015     2.5740    -1.1721 C.ar    
  26 C26            8.2884     3.1965    -1.4981 C.ar    
  27 C27            6.0007     3.3983    -2.2025 C.ar    
  28 C28            7.3394     3.7115    -2.3645 C.ar    
  29 H29            0.3965     0.3374     2.8226 H       
  30 H30            0.4875    -0.7384     1.4075 H       
  31 H31           -0.1553     0.2019    -2.9614 H       
  32 H32           -1.8817    -0.1824    -2.7615 H       
  33 H33           -2.1578     1.0883     3.1194 H       
  34 H34           -3.7361     0.1013    -1.4445 H       
  35 H35            1.0155     2.8695     1.3666 H       
  36 H36           -4.5163     0.4802     2.7304 H       
  37 H37           -5.2963    -0.0106     0.4486 H       
  38 H38            2.7957    -0.9508     2.9695 H       
  39 H39           -1.8725     2.7155    -5.0354 H       
  40 H40           -1.5169     1.0755    -5.1167 H       
  41 H41            5.1722    -0.4557     2.6508 H       
  42 H42            4.0898     1.2723     0.3002 H       
  43 H43            6.8753     0.7697     1.4899 H       
  44 H44            8.6475     1.9701     0.2126 H       
  45 H45            4.5568     2.3303    -1.0473 H       
  46 H46            9.3312     3.4427    -1.6336 H       
  47 H47            5.2671     3.8006    -2.8854 H       
  48 H48            7.6455     4.3578    -3.1737 H       
@<TRIPOS>BOND
   1    1    7 1
   2    1   35 1
   3    2   10 2
   4    3   15 2
   5    4   18 2
   6    5    9 1
   7    5   10 am
   8    5   12 1
   9    6   18 am
  10    6   39 1
  11    6   40 1
  12    7    8 1
  13    7   10 1
  14    7   11 1
  15    8    9 ar
  16    8   13 ar
  17    9   14 ar
  18   11   15 1
  19   11   29 1
  20   11   30 1
  21   12   18 1
  22   12   31 1
  23   12   32 1
  24   13   16 ar
  25   13   33 1
  26   14   17 ar
  27   14   34 1
  28   15   19 1
  29   16   17 ar
  30   16   36 1
  31   17   37 1
  32   19   20 2
  33   19   38 1
  34   20   21 1
  35   20   41 1
  36   21   22 2
  37   21   42 1
  38   22   23 1
  39   22   43 1
  40   23   24 ar
  41   23   25 ar
  42   24   26 ar
  43   24   44 1
  44   25   27 ar
  45   25   45 1
  46   26   28 ar
  47   26   46 1
  48   27   28 ar
  49   27   47 1
  50   28   48 1

#	End of record

#	Name: 5735412
#	Creating user name:	landrgr1
#	Creation time:	28. 01. 2015 13:52

#	Modifying user name:	landrgr1
#	Modification time:	28. 01. 2015 13:52

#	Program:	corina 3.48 0006  22.01.2010

@<TRIPOS>MOLECULE
5735412
  52   54    0    0    0
SMALL
NO_CHARGES


@<TRIPOS>ATOM
   1 O1             2.5045     1.6985    -0.8184 O.2     
   2 O2            -0.8925     2.9274     0.9737 O.2     
   3 O3             8.2025     1.8257     1.1161 O.2     
   4 O4             7.0358     0.3383     2.0526 O.2     
   5 N5             0.3169     1.5418    -1.1735 N.am    
   6 N6             0.0596     4.2948    -0.4948 N.am    
   7 N7             7.1132     1.3906     1.4441 N.pl3   
   8 C8            -0.9395    -0.4028    -1.9618 C.3     
   9 C9             0.4417     0.1447    -1.5962 C.3     
  10 C10           -0.8111    -1.8400    -2.3966 C.ar    
  11 C11            1.2870     3.6362    -0.3780 C.2     
  12 C12            1.4122     2.2339    -0.8023 C.2     
  13 C13           -0.9105    -2.8557    -1.4643 C.ar    
  14 C14           -0.5997    -2.1428    -3.7287 C.ar    
  15 C15            2.3596     4.2890     0.1253 C.2     
  16 C16            3.5819     3.5436     0.4642 C.ar    
  17 C17           -0.7927    -4.1740    -1.8631 C.ar    
  18 C18           -0.4820    -3.4611    -4.1276 C.ar    
  19 C19           -0.5761    -4.4766    -3.1945 C.ar    
  20 C20            4.8347     4.0402     0.0898 C.ar    
  21 C21            3.4975     2.3376     1.1675 C.ar    
  22 C22           -1.0123     3.8487     0.1897 C.2     
  23 C23           -2.3335     4.4797    -0.0130 C.ar    
  24 C24            5.8834     2.1405     1.1031 C.ar    
  25 C25            5.9756     3.3359     0.4115 C.ar    
  26 C26            4.6478     1.6451     1.4818 C.ar    
  27 C27           -3.4458     4.0201     0.6943 C.ar    
  28 C28           -2.4734     5.5416    -0.9082 C.ar    
  29 C29           -4.6759     4.6137     0.5008 C.ar    
  30 C30           -3.7092     6.1263    -1.0923 C.ar    
  31 C31           -4.8087     5.6624    -0.3919 C.ar    
  32 H32           -1.5955    -0.3432    -1.0933 H       
  33 H33           -1.3603     0.1870    -2.7761 H       
  34 H34            1.0976     0.0851    -2.4647 H       
  35 H35            0.8624    -0.4451    -0.7819 H       
  36 H36           -0.5535     1.9699    -1.1645 H       
  37 H37           -1.0797    -2.6193    -0.4241 H       
  38 H38           -0.5269    -1.3494    -4.4579 H       
  39 H39            2.3187     5.3573     0.2784 H       
  40 H40           -0.0207     5.0729    -1.0684 H       
  41 H41           -0.8696    -4.9676    -1.1346 H       
  42 H42           -0.3172    -3.6977    -5.1684 H       
  43 H43           -0.4837    -5.5066    -3.5061 H       
  44 H44            4.9082     4.9726    -0.4502 H       
  45 H45            2.5341     1.9499     1.4640 H       
  46 H46            6.9437     3.7178     0.1228 H       
  47 H47            4.5844     0.7139     2.0251 H       
  48 H48           -3.3436     3.2013     1.3912 H       
  49 H49           -1.6159     5.9048    -1.4552 H       
  50 H50           -5.5373     4.2589     1.0471 H       
  51 H51           -3.8187     6.9482    -1.7843 H       
  52 H52           -5.7740     6.1235    -0.5400 H       
@<TRIPOS>BOND
   1    1   12 2
   2    2   22 2
   3    3    7 2
   4    4    7 2
   5    5    9 1
   6    5   12 am
   7    5   36 1
   8    6   11 1
   9    6   22 am
  10    6   40 1
  11    7   24 1
  12    8    9 1
  13    8   10 1
  14    8   32 1
  15    8   33 1
  16    9   34 1
  17    9   35 1
  18   10   13 ar
  19   10   14 ar
  20   11   12 1
  21   11   15 2
  22   13   17 ar
  23   13   37 1
  24   14   18 ar
  25   14   38 1
  26   15   16 1
  27   15   39 1
  28   16   20 ar
  29   16   21 ar
  30   17   19 ar
  31   17   41 1
  32   18   19 ar
  33   18   42 1
  34   19   43 1
  35   20   25 ar
  36   20   44 1
  37   21   26 ar
  38   21   45 1
  39   22   23 1
  40   23   27 ar
  41   23   28 ar
  42   24   25 ar
  43   24   26 ar
  44   25   46 1
  45   26   47 1
  46   27   29 ar
  47   27   48 1
  48   28   30 ar
  49   28   49 1
  50   29   31 ar
  51   29   50 1
  52   30   31 ar
  53   30   51 1
  54   31   52 1

#	End of record

#	Name: 5735297
#	Creating user name:	landrgr1
#	Creation time:	28. 01. 2015 13:52

#	Modifying user name:	landrgr1
#	Modification time:	28. 01. 2015 13:52

#	Program:	corina 3.48 0006  22.01.2010

@<TRIPOS>MOLECULE
5735297
  35   36    0    0    0
SMALL
NO_CHARGES


@<TRIPOS>ATOM
   1 O1            -1.1388     1.1995    -2.0851 O.3     
   2 O2            -4.8755     0.5874    -0.4605 O.2     
   3 O3            -2.9066    -2.3522     1.0464 O.2     
   4 N4            -2.7297     1.0361    -0.0953 N.am    
   5 N5            -3.9330    -0.5797     1.9090 N.am    
   6 C6            -2.4194    -0.3237     0.0163 C.2     
   7 C7            -0.9210    -0.1113    -1.8519 C.2     
   8 C8            -5.8522     4.6364    -1.1400 C.ar    
   9 C9            -1.4884    -0.8782    -0.8051 C.2     
  10 C10           -5.5494     3.2145    -0.9092 C.2     
  11 C11           -0.0472    -0.5713    -2.8146 C.2     
  12 C12           -7.1572     5.0368    -1.4433 C.ar    
  13 C13           -4.8374     5.5944    -1.0513 C.ar    
  14 C14           -3.9887     1.4182    -0.3874 C.2     
  15 C15           -4.2898     2.8322    -0.6169 C.2     
  16 C16            0.2516     0.5251    -3.6397 C.2     
  17 C17           -7.4329     6.3706    -1.6582 C.ar    
  18 C18           -5.1289     6.9244    -1.2689 C.ar    
  19 C19           -3.0977    -1.1502     1.0184 C.2     
  20 C20           -6.4220     7.3122    -1.5743 C.ar    
  21 C21           -0.4347     1.5848    -3.1599 C.2     
  22 H22           -1.1817    -1.9034    -0.6592 H       
  23 H23           -2.0387     1.7037     0.0377 H       
  24 H24           -6.3361     2.4774    -0.9740 H       
  25 H25            0.3330    -1.5773    -2.9142 H       
  26 H26           -7.9471     4.3032    -1.5095 H       
  27 H27           -3.8280     5.2934    -0.8127 H       
  28 H28           -3.5031     3.5693    -0.5521 H       
  29 H29            0.9078     0.5216    -4.4975 H       
  30 H30           -8.4402     6.6814    -1.8930 H       
  31 H31           -4.3463     7.6655    -1.2008 H       
  32 H32           -6.6441     8.3554    -1.7440 H       
  33 H33           -0.4191     2.5818    -3.5748 H       
  34 H34           -4.3242    -1.1137     2.6180 H       
  35 H35           -4.1430     0.3648     1.8409 H       
@<TRIPOS>BOND
   1    1    7 1
   2    1   21 1
   3    2   14 2
   4    3   19 2
   5    4    6 1
   6    4   14 am
   7    4   23 1
   8    5   19 am
   9    5   34 1
  10    5   35 1
  11    6    9 2
  12    6   19 1
  13    7    9 1
  14    7   11 2
  15    8   10 1
  16    8   12 ar
  17    8   13 ar
  18    9   22 1
  19   10   15 2
  20   10   24 1
  21   11   16 1
  22   11   25 1
  23   12   17 ar
  24   12   26 1
  25   13   18 ar
  26   13   27 1
  27   14   15 1
  28   15   28 1
  29   16   21 2
  30   16   29 1
  31   17   20 ar
  32   17   30 1
  33   18   20 ar
  34   18   31 1
  35   20   32 1
  36   21   33 1

#	End of record

#	Name: 5735143
#	Creating user name:	landrgr1
#	Creation time:	28. 01. 2015 13:52

#	Modifying user name:	landrgr1
#	Modification time:	28. 01. 2015 13:52

#	Program:	corina 3.48 0006  22.01.2010

@<TRIPOS>MOLECULE
5735143
  38   40    0    0    0
SMALL
NO_CHARGES


@<TRIPOS>ATOM
   1 S1             0.0247     1.5925    -0.8322 S.3     
   2 O2            -5.3365     3.6053     0.2103 O.3     
   3 O3            -1.4433     1.7631     1.0771 O.2     
   4 O4            -5.7983     1.2111     1.6527 O.2     
   5 O5            -3.5959    -2.2127    -0.0876 O.2     
   6 N6            -3.6423     1.5121     1.3727 N.am    
   7 N7            -4.7300    -0.5004     0.7886 N.am    
   8 C8            -4.0358     3.8538     0.7868 C.3     
   9 C9            -4.1167     5.2951     1.3367 C.3     
  10 C10           -5.2349     5.9545     0.4988 C.3     
  11 C11           -3.7585     2.8655     1.9214 C.3     
  12 C12           -5.6974     4.8335    -0.4583 C.3     
  13 C13           -2.4328     1.0614     0.9807 C.2     
  14 C14           -4.7394     0.7478     1.2770 C.2     
  15 C15           -2.3421    -0.3026     0.4324 C.2     
  16 C16           -3.5917    -1.0785     0.3531 C.2     
  17 C17           -1.1295    -0.8347     0.0077 C.2     
  18 C18           -0.0008    -0.0077    -0.1039 C.2     
  19 C19            1.2661    -0.3191     0.3388 C.2     
  20 C20            1.6924     1.7622    -0.5154 C.2     
  21 C21            2.1796     0.6730     0.0997 C.2     
  22 C22            2.5107     2.9743    -0.8788 C.3     
  23 H23           -3.2620     3.7821     0.0224 H       
  24 H24           -4.3856     5.2863     2.3930 H       
  25 H25           -3.1703     5.8147     1.1869 H       
  26 H26           -6.0567     6.2717     1.1408 H       
  27 H27           -4.8413     6.8001    -0.0653 H       
  28 H28           -4.5779     2.8974     2.6394 H       
  29 H29           -2.8278     3.1366     2.4199 H       
  30 H30           -5.1784     4.9122    -1.4136 H       
  31 H31           -6.7761     4.8821    -0.6064 H       
  32 H32           -5.5609    -0.9993     0.7470 H       
  33 H33           -1.0562    -1.8842    -0.2364 H       
  34 H34            1.5138    -1.2509     0.8253 H       
  35 H35            3.2173     0.5854     0.3858 H       
  36 H36            1.8725     3.7103    -1.3677 H       
  37 H37            2.9390     3.4079     0.0249 H       
  38 H38            3.3126     2.6814    -1.5565 H       
@<TRIPOS>BOND
   1    1   18 1
   2    1   20 1
   3    2    8 1
   4    2   12 1
   5    3   13 2
   6    4   14 2
   7    5   16 2
   8    6   11 1
   9    6   13 am
  10    6   14 am
  11    7   14 am
  12    7   16 am
  13    7   32 1
  14    8    9 1
  15    8   11 1
  16    8   23 1
  17    9   10 1
  18    9   24 1
  19    9   25 1
  20   10   12 1
  21   10   26 1
  22   10   27 1
  23   11   28 1
  24   11   29 1
  25   12   30 1
  26   12   31 1
  27   13   15 1
  28   15   16 1
  29   15   17 2
  30   17   18 1
  31   17   33 1
  32   18   19 2
  33   19   21 1
  34   19   34 1
  35   20   21 2
  36   20   22 1
  37   21   35 1
  38   22   36 1
  39   22   37 1
  40   22   38 1

#	End of record

#	Name: 5733483
#	Creating user name:	landrgr1
#	Creation time:	28. 01. 2015 13:52

#	Modifying user name:	landrgr1
#	Modification time:	28. 01. 2015 13:52

#	Program:	corina 3.48 0006  22.01.2010

@<TRIPOS>MOLECULE
5733483
  41   43    0    0    0
SMALL
NO_CHARGES


@<TRIPOS>ATOM
   1 O1            -4.7756    -4.7169     0.6715 O.2     
   2 O2            -0.4150     1.1327     2.8706 O.3     
   3 O3             0.6166    -0.8264     3.0265 O.2     
   4 N4            -2.6501    -4.3699     1.4742 N.am    
   5 N5            -1.5607    -5.1877     1.7732 N.2     
   6 C6            -3.2081    -6.5090     1.0409 C.2     
   7 C7            -2.6715    -2.9766     1.6183 C.ar    
   8 C8            -1.8294    -6.4369     1.5405 C.2     
   9 C9            -3.6778    -5.1158     1.0205 C.2     
  10 C10           -1.5507    -2.3114     2.0906 C.ar    
  11 C11           -3.8144    -2.2610     1.2828 C.ar    
  12 C12           -3.9146    -7.6474     0.6638 C.2     
  13 C13           -0.8949    -7.6014     1.7455 C.3     
  14 C14           -1.5770    -0.9238     2.2320 C.ar    
  15 C15           -3.8407    -0.8857     1.4224 C.ar    
  16 C16           -2.7325    -0.2144     1.8966 C.ar    
  17 C17           -5.2332    -7.5335     0.2060 C.2     
  18 C18           -5.9481    -8.6508    -0.0925 C.2     
  19 C19           -5.2881    -9.9622    -0.1081 C.ar    
  20 C20           -0.3870    -0.2072     2.7351 C.2     
  21 C21           -5.9833   -11.1054     0.3056 C.ar    
  22 C22           -3.9615   -10.0779    -0.5422 C.ar    
  23 C23           -5.3562   -12.3326     0.2873 C.ar    
  24 C24           -3.3498   -11.3129    -0.5540 C.ar    
  25 C25           -4.0427   -12.4371    -0.1380 C.ar    
  26 H26           -0.6604    -2.8656     2.3486 H       
  27 H27           -4.6850    -2.7809     0.9111 H       
  28 H28           -3.4459    -8.6185     0.7242 H       
  29 H29            0.0599    -7.2384     2.1257 H       
  30 H30           -1.3316    -8.2957     2.4634 H       
  31 H31           -0.7373    -8.1122     0.7956 H       
  32 H32           -4.7319    -0.3351     1.1600 H       
  33 H33           -2.7571     0.8599     2.0045 H       
  34 H34           -5.6822    -6.5581     0.0901 H       
  35 H35           -7.0014    -8.5737    -0.3181 H       
  36 H36           -7.0077   -11.0256     0.6383 H       
  37 H37           -3.4196    -9.2020    -0.8670 H       
  38 H38           -5.8908   -13.2153     0.6059 H       
  39 H39           -2.3270   -11.4039    -0.8884 H       
  40 H40           -3.5571   -13.4017    -0.1491 H       
  41 H41            0.3876     1.5571     3.2035 H       
@<TRIPOS>BOND
   1    1    9 2
   2    2   20 1
   3    2   41 1
   4    3   20 2
   5    4    5 1
   6    4    7 1
   7    4    9 am
   8    5    8 2
   9    6    8 1
  10    6    9 1
  11    6   12 2
  12    7   10 ar
  13    7   11 ar
  14    8   13 1
  15   10   14 ar
  16   10   26 1
  17   11   15 ar
  18   11   27 1
  19   12   17 1
  20   12   28 1
  21   13   29 1
  22   13   30 1
  23   13   31 1
  24   14   16 ar
  25   14   20 1
  26   15   16 ar
  27   15   32 1
  28   16   33 1
  29   17   18 2
  30   17   34 1
  31   18   19 1
  32   18   35 1
  33   19   21 ar
  34   19   22 ar
  35   21   23 ar
  36   21   36 1
  37   22   24 ar
  38   22   37 1
  39   23   25 ar
  40   23   38 1
  41   24   25 ar
  42   24   39 1
  43   25   40 1

#	End of record

#	Name: 5733023
#	Creating user name:	landrgr1
#	Creation time:	28. 01. 2015 13:52

#	Modifying user name:	landrgr1
#	Modification time:	28. 01. 2015 13:52

#	Program:	corina 3.48 0006  22.01.2010

@<TRIPOS>MOLECULE
5733023
  44   46    0    0    0
SMALL
NO_CHARGES


@<TRIPOS>ATOM
   1 O1            -4.9499     1.2071     0.0570 O.2     
   2 O2            -0.0163     1.3527     0.0095 O.3     
   3 N3            -6.0789    -0.7071     0.0572 N.am    
   4 C4            -8.3319    -1.2323     0.6819 C.3     
   5 C5            -7.6988    -2.5142     0.0793 C.3     
   6 C6            -7.4338    -0.1263     0.0736 C.3     
   7 C7            -6.1942    -2.1727     0.0435 C.3     
   8 C8            -9.7620    -1.0740     0.2338 C.ar    
   9 C9            -4.9255    -0.0098     0.0499 C.2     
  10 C10          -10.7796    -1.0400     1.1688 C.ar    
  11 C11          -10.0557    -0.9573    -1.1120 C.ar    
  12 C12           -3.6446    -0.7154     0.0335 C.2     
  13 C13          -12.0914    -0.8949     0.7577 C.ar    
  14 C14          -11.3675    -0.8122    -1.5230 C.ar    
  15 C15          -12.3856    -0.7834    -0.5884 C.ar    
  16 C16           -2.4893    -0.0171     0.0262 C.2     
  17 C17           -1.2023    -0.7260     0.0096 C.ar    
  18 C18            0.0021    -0.0041     0.0020 C.ar    
  19 C19           -1.1690    -2.1245     0.0072 C.ar    
  20 C20            1.2094    -0.6839    -0.0136 C.ar    
  21 C21            0.0417    -2.7823    -0.0089 C.ar    
  22 C22            1.2269    -2.0654    -0.0221 C.ar    
  23 C23            1.2480     2.0187     0.0010 C.3     
  24 H24           -8.2633    -1.2369     1.7698 H       
  25 H25           -7.8838    -3.3746     0.7223 H       
  26 H26           -8.0773    -2.6948    -0.9268 H       
  27 H27           -7.4562     0.7667     0.6982 H       
  28 H28           -7.7574     0.1104    -0.9399 H       
  29 H29           -5.7451    -2.5714    -0.8661 H       
  30 H30           -5.6981    -2.5917     0.9189 H       
  31 H31          -10.5497    -1.1271     2.2205 H       
  32 H32           -9.2602    -0.9791    -1.8421 H       
  33 H33           -3.6230    -1.7952     0.0271 H       
  34 H34          -12.8865    -0.8690     1.4882 H       
  35 H35          -11.5969    -0.7206    -2.5744 H       
  36 H36          -13.4105    -0.6704    -0.9096 H       
  37 H37           -2.5110     1.0627     0.0325 H       
  38 H38           -2.0905    -2.6876     0.0178 H       
  39 H39            2.1383    -0.1329    -0.0195 H       
  40 H40            0.0666    -3.8620    -0.0104 H       
  41 H41            2.1710    -2.5899    -0.0350 H       
  42 H42            1.8173     1.7287     0.8840 H       
  43 H43            1.8004     1.7382    -0.8958 H       
  44 H44            1.0905     3.0973     0.0083 H       
@<TRIPOS>BOND
   1    1    9 2
   2    2   18 1
   3    2   23 1
   4    3    6 1
   5    3    7 1
   6    3    9 am
   7    4    5 1
   8    4    6 1
   9    4    8 1
  10    4   24 1
  11    5    7 1
  12    5   25 1
  13    5   26 1
  14    6   27 1
  15    6   28 1
  16    7   29 1
  17    7   30 1
  18    8   10 ar
  19    8   11 ar
  20    9   12 1
  21   10   13 ar
  22   10   31 1
  23   11   14 ar
  24   11   32 1
  25   12   16 2
  26   12   33 1
  27   13   15 ar
  28   13   34 1
  29   14   15 ar
  30   14   35 1
  31   15   36 1
  32   16   17 1
  33   16   37 1
  34   17   18 ar
  35   17   19 ar
  36   18   20 ar
  37   19   21 ar
  38   19   38 1
  39   20   22 ar
  40   20   39 1
  41   21   22 ar
  42   21   40 1
  43   22   41 1
  44   23   42 1
  45   23   43 1
  46   23   44 1

#	End of record

#	Name: 5731126
#	Creating user name:	landrgr1
#	Creation time:	28. 01. 2015 13:52

#	Modifying user name:	landrgr1
#	Modification time:	28. 01. 2015 13:52

#	Program:	corina 3.48 0006  22.01.2010

@<TRIPOS>MOLECULE
5731126
  44   45    0    0    0
SMALL
NO_CHARGES


@<TRIPOS>ATOM
   1 O1            -0.0202     1.3346    -0.0081 O.3     
   2 O2             1.0533    -0.5969    -0.0234 O.2     
   3 O3            -5.4954    -1.4472     1.4282 O.2     
   4 O4            -9.7114     4.4640     2.8930 O.2     
   5 O5            -8.8416     6.3818     3.0197 O.2     
   6 N6            -3.2818    -1.2802     1.3298 N.am    
   7 N7            -8.7283     5.1815     2.8467 N.pl3   
   8 C8            -1.2957    -0.7794     0.0037 C.3     
   9 C9            -0.9956    -2.2800    -0.0020 C.3     
  10 C10           -2.0882    -0.4259     1.2661 C.3     
  11 C11           -2.3095    -3.0646    -0.0210 C.3     
  12 C12           -3.1134    -2.7371     1.2412 C.3     
  13 C13           -0.0014    -0.0076    -0.0102 C.2     
  14 C14           -4.5075    -0.7380     1.4725 C.2     
  15 C15           -4.6503     0.7043     1.6807 C.2     
  16 C16            1.2640     2.0119    -0.0220 C.3     
  17 C17           -5.8663     1.2331     1.9234 C.2     
  18 C18           -6.0099     2.6831     2.1328 C.ar    
  19 C19            1.0423     3.5258    -0.0172 C.3     
  20 C20           -7.2694     3.2354     2.3848 C.ar    
  21 C21           -4.8863     3.5146     2.0864 C.ar    
  22 C22           -7.3957     4.5947     2.5803 C.ar    
  23 C23           -5.0289     4.8716     2.2840 C.ar    
  24 C24           -6.2800     5.4116     2.5277 C.ar    
  25 H25           -1.8826    -0.5224    -0.8781 H       
  26 H26           -0.4105    -2.5300    -0.8870 H       
  27 H27           -0.4299    -2.5407     0.8925 H       
  28 H28           -2.3896     0.6208     1.2273 H       
  29 H29           -1.4687    -0.5975     2.1464 H       
  30 H30           -2.8868    -2.7861    -0.9026 H       
  31 H31           -2.0949    -4.1329    -0.0486 H       
  32 H32           -2.5776    -3.0971     2.1195 H       
  33 H33           -4.0914    -3.2153     1.1858 H       
  34 H34           -3.7814     1.3444     1.6399 H       
  35 H35            1.8354     1.7256     0.8609 H       
  36 H36            1.8147     1.7282    -0.9189 H       
  37 H37           -6.7352     0.5930     1.9643 H       
  38 H38            2.0063     4.0342    -0.0277 H       
  39 H39            0.4709     3.8121    -0.9002 H       
  40 H40            0.4916     3.8095     0.8796 H       
  41 H41           -8.1412     2.5992     2.4258 H       
  42 H42           -3.9095     3.0948     1.8967 H       
  43 H43           -4.1622     5.5151     2.2485 H       
  44 H44           -6.3853     6.4753     2.6817 H       
@<TRIPOS>BOND
   1    1   13 1
   2    1   16 1
   3    2   13 2
   4    3   14 2
   5    4    7 2
   6    5    7 2
   7    6   10 1
   8    6   12 1
   9    6   14 am
  10    7   22 1
  11    8    9 1
  12    8   10 1
  13    8   13 1
  14    8   25 1
  15    9   11 1
  16    9   26 1
  17    9   27 1
  18   10   28 1
  19   10   29 1
  20   11   12 1
  21   11   30 1
  22   11   31 1
  23   12   32 1
  24   12   33 1
  25   14   15 1
  26   15   17 2
  27   15   34 1
  28   16   19 1
  29   16   35 1
  30   16   36 1
  31   17   18 1
  32   17   37 1
  33   18   20 ar
  34   18   21 ar
  35   19   38 1
  36   19   39 1
  37   19   40 1
  38   20   22 ar
  39   20   41 1
  40   21   23 ar
  41   21   42 1
  42   22   24 ar
  43   23   24 ar
  44   23   43 1
  45   24   44 1

#	End of record

#	Name: 5730299
#	Creating user name:	landrgr1
#	Creation time:	28. 01. 2015 13:52

#	Modifying user name:	landrgr1
#	Modification time:	28. 01. 2015 13:52

#	Program:	corina 3.48 0006  22.01.2010

@<TRIPOS>MOLECULE
5730299
  53   55    0    0    0
SMALL
NO_CHARGES


@<TRIPOS>ATOM
   1 Br1            7.5251    13.6426    -0.2696 Br      
   2 O2            -0.6747     5.4569    -3.7895 O.3     
   3 O3             2.0090     6.4802     0.4632 O.2     
   4 O4             3.1091     8.4408    -0.5100 O.2     
   5 O5             1.4481     4.8634    -3.9463 O.2     
   6 N6             4.9246     7.2426    -0.0612 N.am    
   7 N7             2.2646     5.6388    -1.5771 N.am    
   8 C8             4.2116     6.0445    -0.1610 C.2     
   9 C9             4.8561     4.8615    -0.0373 C.2     
  10 C10            4.0877     3.6087     0.0284 C.ar    
  11 C11           -2.3016     5.2348    -5.5620 C.ar    
  12 C12            2.7610     6.0700    -0.4006 C.2     
  13 C13            0.8326     5.7660    -1.8586 C.3     
  14 C14           -0.8661     5.0154    -5.1594 C.3     
  15 C15            5.0805     9.6748    -0.2889 C.ar    
  16 C16            4.3054     8.4168    -0.2947 C.2     
  17 C17            4.6324     2.4228    -0.4750 C.ar    
  18 C18            2.8111     3.5960     0.5998 C.ar    
  19 C19            0.5582     5.3290    -3.2745 C.2     
  20 C20           -2.6824     6.4319    -6.1389 C.ar    
  21 C21           -3.2365     4.2368    -5.3597 C.ar    
  22 C22            4.4420    10.8927    -0.5304 C.ar    
  23 C23            6.4535     9.6510    -0.0361 C.ar    
  24 C24            3.9059     1.2527    -0.4097 C.ar    
  25 C25            2.0974     2.4177     0.6575 C.ar    
  26 C26           -3.9992     6.6332    -6.5082 C.ar    
  27 C27           -4.5533     4.4381    -5.7290 C.ar    
  28 C28            2.6410     1.2496     0.1520 C.ar    
  29 C29           -4.9351     5.6372    -6.3011 C.ar    
  30 C30            5.1708    12.0634    -0.5231 C.ar    
  31 C31            7.1713    10.8285    -0.0316 C.ar    
  32 C32            6.5332    12.0327    -0.2771 C.ar    
  33 H33            5.9346     4.8369     0.0134 H       
  34 H34            0.2695     5.1374    -1.1688 H       
  35 H35            0.5286     6.8053    -1.7338 H       
  36 H36           -0.2124     5.5854    -5.8196 H       
  37 H37           -0.6251     3.9551    -5.2364 H       
  38 H38            5.8650     7.2290     0.1761 H       
  39 H39            2.8556     5.2444    -2.2375 H       
  40 H40            5.6192     2.4237    -0.9139 H       
  41 H41            2.3857     4.5067     0.9950 H       
  42 H42           -1.9512     7.2101    -6.3008 H       
  43 H43           -2.9381     3.2998    -4.9133 H       
  44 H44            3.3795    10.9178    -0.7228 H       
  45 H45            6.9522     8.7125     0.1557 H       
  46 H46            4.3249     0.3362    -0.7983 H       
  47 H47            1.1115     2.4063     1.0984 H       
  48 H48           -4.2968     7.5688    -6.9583 H       
  49 H49           -5.2837     3.6583    -5.5712 H       
  50 H50            2.0768     0.3299     0.1999 H       
  51 H51           -5.9640     5.7947    -6.5893 H       
  52 H52            4.6780    13.0061    -0.7102 H       
  53 H53            8.2333    10.8114     0.1641 H       
@<TRIPOS>BOND
   1    1   32 1
   2    2   14 1
   3    2   19 1
   4    3   12 2
   5    4   16 2
   6    5   19 2
   7    6    8 1
   8    6   16 am
   9    6   38 1
  10    7   12 am
  11    7   13 1
  12    7   39 1
  13    8    9 2
  14    8   12 1
  15    9   10 1
  16    9   33 1
  17   10   17 ar
  18   10   18 ar
  19   11   14 1
  20   11   20 ar
  21   11   21 ar
  22   13   19 1
  23   13   34 1
  24   13   35 1
  25   14   36 1
  26   14   37 1
  27   15   16 1
  28   15   22 ar
  29   15   23 ar
  30   17   24 ar
  31   17   40 1
  32   18   25 ar
  33   18   41 1
  34   20   26 ar
  35   20   42 1
  36   21   27 ar
  37   21   43 1
  38   22   30 ar
  39   22   44 1
  40   23   31 ar
  41   23   45 1
  42   24   28 ar
  43   24   46 1
  44   25   28 ar
  45   25   47 1
  46   26   29 ar
  47   26   48 1
  48   27   29 ar
  49   27   49 1
  50   28   50 1
  51   29   51 1
  52   30   32 ar
  53   30   52 1
  54   31   32 ar
  55   31   53 1

#	End of record

#	Name: 5729239
#	Creating user name:	landrgr1
#	Creation time:	28. 01. 2015 13:52

#	Modifying user name:	landrgr1
#	Modification time:	28. 01. 2015 13:52

#	Program:	corina 3.48 0006  22.01.2010

@<TRIPOS>MOLECULE
5729239
  54   55    0    0    0
SMALL
NO_CHARGES


@<TRIPOS>ATOM
   1 S1            -5.5454    -1.4657    -1.8315 S.3     
   2 O2            -3.0651    -4.4012     2.1736 O.3     
   3 O3            -2.0103    -5.7022     0.7320 O.2     
   4 O4             0.2025    -3.4075    -0.4855 O.2     
   5 O5             0.3614    -8.3936     0.2589 O.3     
   6 O6             0.0810    -6.1102    -0.7299 O.2     
   7 N7            -1.7885    -4.0154    -1.2617 N.am    
   8 N8             0.7610    -5.5479    -2.7684 N.am    
   9 C9            -2.4587    -3.5267    -0.0542 C.3     
  10 C10           -3.8881    -3.1044    -0.3998 C.3     
  11 C11           -3.8507    -1.9664    -1.4218 C.3     
  12 C12           -2.4948    -4.6232     0.9790 C.2     
  13 C13           -0.4555    -3.8703    -1.3981 C.2     
  14 C14            0.2035    -4.2715    -2.6499 C.2     
  15 C15            0.2702    -3.4053    -3.6869 C.2     
  16 C16           -0.1816    -2.0158    -3.5149 C.ar    
  17 C17            1.1051    -7.8231    -1.9406 C.ar    
  18 C18            0.6157    -6.4420    -1.7705 C.2     
  19 C19            0.9560    -8.7565    -0.9052 C.ar    
  20 C20           -5.2970    -0.1311    -3.0348 C.3     
  21 C21            0.1377    -1.3120    -2.3492 C.ar    
  22 C22           -0.9277    -1.3899    -4.5188 C.ar    
  23 C23            1.7146    -8.2101    -3.1363 C.ar    
  24 C24            1.4194   -10.0521    -1.0762 C.ar    
  25 C25            2.1694    -9.5022    -3.2890 C.ar    
  26 C26           -0.2895    -0.0100    -2.1956 C.ar    
  27 C27           -1.3475    -0.0874    -4.3501 C.ar    
  28 C28            2.0253   -10.4198    -2.2616 C.ar    
  29 C29           -1.0323     0.6005    -3.1911 C.ar    
  30 C30            0.2446    -9.3982     1.2684 C.3     
  31 H31           -1.9130    -2.6709     0.3431 H       
  32 H32           -4.4260    -3.9536    -0.8212 H       
  33 H33           -4.3952    -2.7651     0.5034 H       
  34 H34           -3.3436    -2.3057    -2.3250 H       
  35 H35           -3.3128    -1.1172    -1.0004 H       
  36 H36           -2.3040    -4.4434    -1.9631 H       
  37 H37            0.6551    -3.7339    -4.6410 H       
  38 H38            1.2525    -5.7901    -3.5688 H       
  39 H39           -4.7228     0.6722    -2.5731 H       
  40 H40           -4.7537    -0.5164    -3.8977 H       
  41 H41           -6.2650     0.2527    -3.3567 H       
  42 H42           -3.0641    -5.1347     2.8037 H       
  43 H43            0.7169    -1.7871    -1.5713 H       
  44 H44           -1.1741    -1.9252    -5.4239 H       
  45 H45            1.8291    -7.4980    -3.9401 H       
  46 H46            1.3067   -10.7745    -0.2814 H       
  47 H47            2.6402    -9.8006    -4.2141 H       
  48 H48           -0.0441     0.5347    -1.2959 H       
  49 H49           -1.9237     0.3973    -5.1243 H       
  50 H50            2.3849   -11.4301    -2.3897 H       
  51 H51           -1.3643     1.6204    -3.0647 H       
  52 H52            1.2376    -9.7527     1.5448 H       
  53 H53           -0.2478    -8.9770     2.1449 H       
  54 H54           -0.3451   -10.2311     0.8856 H       
@<TRIPOS>BOND
   1    1   11 1
   2    1   20 1
   3    2   12 1
   4    2   42 1
   5    3   12 2
   6    4   13 2
   7    5   19 1
   8    5   30 1
   9    6   18 2
  10    7    9 1
  11    7   13 am
  12    7   36 1
  13    8   14 1
  14    8   18 am
  15    8   38 1
  16    9   10 1
  17    9   12 1
  18    9   31 1
  19   10   11 1
  20   10   32 1
  21   10   33 1
  22   11   34 1
  23   11   35 1
  24   13   14 1
  25   14   15 2
  26   15   16 1
  27   15   37 1
  28   16   21 ar
  29   16   22 ar
  30   17   18 1
  31   17   19 ar
  32   17   23 ar
  33   19   24 ar
  34   20   39 1
  35   20   40 1
  36   20   41 1
  37   21   26 ar
  38   21   43 1
  39   22   27 ar
  40   22   44 1
  41   23   25 ar
  42   23   45 1
  43   24   28 ar
  44   24   46 1
  45   25   28 ar
  46   25   47 1
  47   26   29 ar
  48   26   48 1
  49   27   29 ar
  50   27   49 1
  51   28   50 1
  52   29   51 1
  53   30   52 1
  54   30   53 1
  55   30   54 1

#	End of record

#	Name: 5729082
#	Creating user name:	landrgr1
#	Creation time:	28. 01. 2015 13:52

#	Modifying user name:	landrgr1
#	Modification time:	28. 01. 2015 13:52

#	Program:	corina 3.48 0006  22.01.2010

@<TRIPOS>MOLECULE
5729082
  50   52    0    0    0
SMALL
NO_CHARGES


@<TRIPOS>ATOM
   1 F1             4.8290     3.9778    -0.0242 F       
   2 O2            -0.0173     1.4248     0.0099 O.3     
   3 O3            -0.5998    -2.7606    -0.0180 O.3     
   4 O4           -12.5270    -0.7194     0.1158 O.3     
   5 O5            -7.0721     2.4379     0.0825 O.2     
   6 C6            -1.4117    -0.5257     0.0127 C.ar    
   7 C7            -3.7822    -0.1304     0.0370 C.ar    
   8 C8             0.0021    -0.0041     0.0020 C.3     
   9 C9            -2.4691     0.3556     0.0275 C.ar    
  10 C10           -1.6458    -1.8960     0.0018 C.ar    
  11 C11           -4.0123    -1.5119     0.0307 C.ar    
  12 C12           -2.9480    -2.3841     0.0106 C.ar    
  13 C13           -4.9144     0.8054     0.0530 C.2     
  14 C14            1.1854     2.0584     0.0018 C.ar    
  15 C15           -6.1814     0.3334     0.0621 C.2     
  16 C16           -8.6588     0.7214     0.0874 C.ar    
  17 C17           -7.2747     1.2370     0.0775 C.2     
  18 C18           -9.7373     1.6101     0.1026 C.ar    
  19 C19           -8.8934    -0.6562     0.0759 C.ar    
  20 C20            1.2400     3.4444     0.0087 C.ar    
  21 C21            2.3593     1.3194    -0.0077 C.ar    
  22 C22          -11.2552    -0.2457     0.1062 C.ar    
  23 C23          -11.0261     1.1255     0.1119 C.ar    
  24 C24          -10.1852    -1.1328     0.0853 C.ar    
  25 C25           -0.9109    -4.1553    -0.0284 C.3     
  26 C26            2.4629     4.0870     0.0004 C.ar    
  27 C27            3.5808     1.9646    -0.0159 C.ar    
  28 C28            3.6338     3.3481    -0.0152 C.ar    
  29 C29          -12.6906    -2.1390     0.1092 C.3     
  30 H30            0.5123    -0.3556    -0.8948 H       
  31 H31            0.5293    -0.3651     0.8851 H       
  32 H32           -2.2862     1.4200     0.0322 H       
  33 H33           -5.0232    -1.8920     0.0380 H       
  34 H34           -3.1244    -3.4496     0.0014 H       
  35 H35           -4.7348     1.8703     0.0574 H       
  36 H36           -6.3610    -0.7315     0.0576 H       
  37 H37           -9.5602     2.6754     0.1074 H       
  38 H38           -8.0626    -1.3461     0.0593 H       
  39 H39            0.3268     4.0209     0.0202 H       
  40 H40            2.3183     0.2402    -0.0082 H       
  41 H41          -11.8602     1.8115     0.1240 H       
  42 H42          -10.3673    -2.1973     0.0761 H       
  43 H43           -1.4818    -4.4068     0.8654 H       
  44 H44           -1.5011    -4.3893    -0.9144 H       
  45 H45            0.0129    -4.7335    -0.0441 H       
  46 H46            2.5057     5.1661     0.0058 H       
  47 H47            4.4949     1.3895    -0.0233 H       
  48 H48          -12.2304    -2.5536    -0.7877 H       
  49 H49          -12.2131    -2.5639     0.9922 H       
  50 H50          -13.7530    -2.3823     0.1182 H       
@<TRIPOS>BOND
   1    1   28 1
   2    2    8 1
   3    2   14 1
   4    3   10 1
   5    3   25 1
   6    4   22 1
   7    4   29 1
   8    5   17 2
   9    6    8 1
  10    6    9 ar
  11    6   10 ar
  12    7    9 ar
  13    7   11 ar
  14    7   13 1
  15    8   30 1
  16    8   31 1
  17    9   32 1
  18   10   12 ar
  19   11   12 ar
  20   11   33 1
  21   12   34 1
  22   13   15 2
  23   13   35 1
  24   14   20 ar
  25   14   21 ar
  26   15   17 1
  27   15   36 1
  28   16   17 1
  29   16   18 ar
  30   16   19 ar
  31   18   23 ar
  32   18   37 1
  33   19   24 ar
  34   19   38 1
  35   20   26 ar
  36   20   39 1
  37   21   27 ar
  38   21   40 1
  39   22   23 ar
  40   22   24 ar
  41   23   41 1
  42   24   42 1
  43   25   43 1
  44   25   44 1
  45   25   45 1
  46   26   28 ar
  47   26   46 1
  48   27   28 ar
  49   27   47 1
  50   29   48 1
  51   29   49 1
  52   29   50 1

#	End of record

#	Name: 5728633
#	Creating user name:	landrgr1
#	Creation time:	28. 01. 2015 13:52

#	Modifying user name:	landrgr1
#	Modification time:	28. 01. 2015 13:52

#	Program:	corina 3.48 0006  22.01.2010

@<TRIPOS>MOLECULE
5728633
  31   33    0    0    0
SMALL
NO_CHARGES


@<TRIPOS>ATOM
   1 F1            -3.4032     1.4920    -3.6508 F       
   2 F2            -4.0412    -0.6272    -3.0841 F       
   3 F3            -2.0777    -0.2856    -4.2007 F       
   4 O4            -0.0161     1.3388     0.0094 O.3     
   5 O5            -6.4127     3.0237     1.7101 O.3     
   6 O6            -6.3538     3.6101    -0.4300 O.2     
   7 N7            -3.1206     0.9146    -0.8870 N.pl3   
   8 N8            -2.2211    -0.3430     0.9119 N.2     
   9 N9            -4.1329     1.8582    -1.0193 N.pl3   
  10 C10           -2.2144     0.3698    -1.9036 C.3     
  11 C11           -1.7606    -1.0141    -1.4133 C.3     
  12 C12           -1.2082    -0.9019     0.0083 C.3     
  13 C13           -3.0829     0.5143     0.4430 C.2     
  14 C14           -2.9499     0.2344    -3.2384 C.3     
  15 C15            0.0021    -0.0041     0.0020 C.2     
  16 C16           -4.1536     1.2376     1.1278 C.2     
  17 C17           -4.7543     2.0320     0.2074 C.2     
  18 C18            1.2839    -0.4117    -0.0124 C.2     
  19 C19           -5.8906     2.9398     0.4707 C.2     
  20 C20            2.0843     0.7537    -0.0138 C.2     
  21 C21            1.2438     1.8038    -0.0001 C.2     
  22 H22           -1.3504     1.0242    -2.0196 H       
  23 H23           -2.6097    -1.6975    -1.4196 H       
  24 H24           -0.9834    -1.3964    -2.0752 H       
  25 H25           -0.9190    -1.8919     0.3608 H       
  26 H26           -4.3667     2.3212    -1.8390 H       
  27 H27           -4.4170     1.1546     2.1719 H       
  28 H28            1.6343    -1.4332    -0.0207 H       
  29 H29            3.1636     0.7932    -0.0236 H       
  30 H30            1.5330     2.8444     0.0027 H       
  31 H31           -7.1549     3.6311     1.8336 H       
@<TRIPOS>BOND
   1    1   14 1
   2    2   14 1
   3    3   14 1
   4    4   15 1
   5    4   21 1
   6    5   19 1
   7    5   31 1
   8    6   19 2
   9    7    9 1
  10    7   10 1
  11    7   13 1
  12    8   12 1
  13    8   13 2
  14    9   17 1
  15    9   26 1
  16   10   11 1
  17   10   14 1
  18   10   22 1
  19   11   12 1
  20   11   23 1
  21   11   24 1
  22   12   15 1
  23   12   25 1
  24   13   16 1
  25   15   18 2
  26   16   17 2
  27   16   27 1
  28   17   19 1
  29   18   20 1
  30   18   28 1
  31   20   21 2
  32   20   29 1
  33   21   30 1

#	End of record

#	Name: 5728121
#	Creating user name:	landrgr1
#	Creation time:	28. 01. 2015 13:52

#	Modifying user name:	landrgr1
#	Modification time:	28. 01. 2015 13:52

#	Program:	corina 3.48 0006  22.01.2010

@<TRIPOS>MOLECULE
5728121
  41   43    0    0    0
SMALL
NO_CHARGES


@<TRIPOS>ATOM
   1 N1            -0.0178     1.4608     0.0101 N.pl3   
   2 N2            -0.7683     3.5244     0.0244 N.2     
   3 C3             0.0021    -0.0041     0.0020 C.3     
   4 C4             0.0228    -0.5218     1.4416 C.3     
   5 C5             1.0819     2.2972     0.0041 C.ar    
   6 C6            -1.1322     2.2615     0.0190 C.2     
   7 C7             0.5775     3.6109     0.0159 C.ar    
   8 C8            -1.2834    -0.1385     2.1402 C.3     
   9 C9             0.1692    -2.0447     1.4339 C.3     
  10 C10            2.4527     2.0842    -0.0102 C.ar    
  11 C11           -2.5180     1.7812     0.0216 C.2     
  12 C12            1.4696     4.6889     0.0174 C.ar    
  13 C13            3.3126     3.1630    -0.0126 C.ar    
  14 C14            2.8161     4.4584     0.0076 C.ar    
  15 C15           -3.5357     2.6624     0.0307 C.2     
  16 C16           -4.9272     2.1801     0.0333 C.ar    
  17 C17           -5.9868     3.0920     0.0427 C.ar    
  18 C18           -5.1952     0.8081     0.0207 C.ar    
  19 C19           -7.2871     2.6328     0.0451 C.ar    
  20 C20           -6.5009     0.3642     0.0233 C.ar    
  21 C21           -7.5444     1.2730     0.0384 C.ar    
  22 H22           -0.8878    -0.3767    -0.5053 H       
  23 H23            0.8920    -0.3525    -0.5222 H       
  24 H24            0.8637    -0.0786     1.9750 H       
  25 H25           -2.1243    -0.5817     1.6068 H       
  26 H26           -1.2686    -0.5073     3.1658 H       
  27 H27           -1.3877     0.9465     2.1458 H       
  28 H28            1.0997    -2.3178     0.9362 H       
  29 H29            0.1839    -2.4135     2.4595 H       
  30 H30           -0.6718    -2.4879     0.9005 H       
  31 H31            2.8451     1.0780    -0.0190 H       
  32 H32           -2.7219     0.7207     0.0163 H       
  33 H33            1.0943     5.7016     0.0258 H       
  34 H34            4.3799     2.9980    -0.0237 H       
  35 H35            3.5012     5.2933     0.0084 H       
  36 H36           -3.3318     3.7229     0.0360 H       
  37 H37           -5.7875     4.1535     0.0483 H       
  38 H38           -4.3819     0.0977     0.0086 H       
  39 H39           -8.1067     3.3361     0.0527 H       
  40 H40           -6.7095    -0.6955     0.0135 H       
  41 H41           -8.5649     0.9193     0.0407 H       
@<TRIPOS>BOND
   1    1    3 1
   2    1    5 1
   3    1    6 1
   4    2    6 2
   5    2    7 1
   6    3    4 1
   7    3   22 1
   8    3   23 1
   9    4    8 1
  10    4    9 1
  11    4   24 1
  12    5    7 ar
  13    5   10 ar
  14    6   11 1
  15    7   12 ar
  16    8   25 1
  17    8   26 1
  18    8   27 1
  19    9   28 1
  20    9   29 1
  21    9   30 1
  22   10   13 ar
  23   10   31 1
  24   11   15 2
  25   11   32 1
  26   12   14 ar
  27   12   33 1
  28   13   14 ar
  29   13   34 1
  30   14   35 1
  31   15   16 1
  32   15   36 1
  33   16   17 ar
  34   16   18 ar
  35   17   19 ar
  36   17   37 1
  37   18   20 ar
  38   18   38 1
  39   19   21 ar
  40   19   39 1
  41   20   21 ar
  42   20   40 1
  43   21   41 1

#	End of record

#	Name: 5727347
#	Creating user name:	landrgr1
#	Creation time:	28. 01. 2015 13:52

#	Modifying user name:	landrgr1
#	Modification time:	28. 01. 2015 13:52

#	Program:	corina 3.48 0006  22.01.2010

@<TRIPOS>MOLECULE
5727347
  51   55    0    0    0
SMALL
NO_CHARGES


@<TRIPOS>ATOM
   1 Cl1          -11.1543     0.7241    -3.9099 Cl      
   2 S2             0.0108     1.6968    -0.7471 S.3     
   3 S3            -5.0427     0.5895    -2.5360 S.3     
   4 O4            -0.4782    -2.9014    -0.3937 O.2     
   5 O5            -8.9041    -4.1887    -1.4741 O.3     
   6 N6            -1.2767    -0.7818    -0.7820 N.am    
   7 N7            -2.5165    -0.2378    -1.1157 N.2     
   8 N8             1.0320    -0.5555    -0.2890 N.2     
   9 C9            -2.7793    -2.4527    -0.9573 C.2     
  10 C10           -3.4233    -1.1588    -1.2301 C.2     
  11 C11           -1.3727    -2.1224    -0.6719 C.2     
  12 C12           -4.8733    -0.9420    -1.5787 C.3     
  13 C13           -0.1121    -0.0505    -0.5960 C.2     
  14 C14           -3.3663    -3.7056    -0.9664 C.2     
  15 C15           -4.8171    -3.8324    -1.0993 C.ar    
  16 C16            1.7273     1.6233    -0.3565 C.ar    
  17 C17            2.0741     0.2854    -0.1423 C.ar    
  18 C18           -5.6686    -3.0860    -0.2700 C.ar    
  19 C19           -5.3640    -4.6965    -2.0605 C.ar    
  20 C20            2.6865     2.6266    -0.2444 C.ar    
  21 C21            3.4127    -0.0157     0.1873 C.ar    
  22 C22           -6.7614     0.6275    -2.9221 C.ar    
  23 C23           -7.0225    -3.2086    -0.3994 C.ar    
  24 C24           -6.7196    -4.8100    -2.1798 C.ar    
  25 C25            3.9871     2.3087     0.0783 C.ar    
  26 C26            4.3445     0.9858     0.2929 C.ar    
  27 C27           -7.5583    -4.0711    -1.3509 C.ar    
  28 C28           -7.2630     1.6075    -3.7700 C.ar    
  29 C29           -7.6172    -0.3260    -2.3840 C.ar    
  30 C30           -8.6103     1.6344    -4.0712 C.ar    
  31 C31           -8.9636    -0.2938    -2.6888 C.ar    
  32 C32           -9.4610     0.6866    -3.5294 C.ar    
  33 C33           -9.3882    -5.1728    -2.3902 C.3     
  34 H34           -5.4595    -0.8649    -0.6630 H       
  35 H35           -5.2341    -1.7827    -2.1713 H       
  36 H36           -2.7531    -4.5900    -0.8754 H       
  37 H37           -5.2540    -2.4165     0.4691 H       
  38 H38           -4.7141    -5.2702    -2.7047 H       
  39 H39            2.4097     3.6571    -0.4115 H       
  40 H40            3.7056    -1.0412     0.3578 H       
  41 H41           -7.6789    -2.6351     0.2383 H       
  42 H42           -7.1417    -5.4744    -2.9193 H       
  43 H43            4.7285     3.0892     0.1643 H       
  44 H44            5.3658     0.7419     0.5458 H       
  45 H45           -6.5997     2.3476    -4.1928 H       
  46 H46           -7.2295    -1.0915    -1.7282 H       
  47 H47           -9.0008     2.3961    -4.7298 H       
  48 H48           -9.6291    -1.0346    -2.2709 H       
  49 H49          -10.4754    -5.2225    -2.3292 H       
  50 H50           -9.0933    -4.9018    -3.4040 H       
  51 H51           -8.9652    -6.1448    -2.1364 H       
@<TRIPOS>BOND
   1    1   32 1
   2    2   13 1
   3    2   16 1
   4    3   12 1
   5    3   22 1
   6    4   11 2
   7    5   27 1
   8    5   33 1
   9    6    7 1
  10    6   11 am
  11    6   13 1
  12    7   10 2
  13    8   13 2
  14    8   17 1
  15    9   10 1
  16    9   11 1
  17    9   14 2
  18   10   12 1
  19   12   34 1
  20   12   35 1
  21   14   15 1
  22   14   36 1
  23   15   18 ar
  24   15   19 ar
  25   16   17 ar
  26   16   20 ar
  27   17   21 ar
  28   18   23 ar
  29   18   37 1
  30   19   24 ar
  31   19   38 1
  32   20   25 ar
  33   20   39 1
  34   21   26 ar
  35   21   40 1
  36   22   28 ar
  37   22   29 ar
  38   23   27 ar
  39   23   41 1
  40   24   27 ar
  41   24   42 1
  42   25   26 ar
  43   25   43 1
  44   26   44 1
  45   28   30 ar
  46   28   45 1
  47   29   31 ar
  48   29   46 1
  49   30   32 ar
  50   30   47 1
  51   31   32 ar
  52   31   48 1
  53   33   49 1
  54   33   50 1
  55   33   51 1

#	End of record

#	Name: 5725455
#	Creating user name:	landrgr1
#	Creation time:	28. 01. 2015 13:52

#	Modifying user name:	landrgr1
#	Modification time:	28. 01. 2015 13:52

#	Program:	corina 3.48 0006  22.01.2010

@<TRIPOS>MOLECULE
5725455
  59   61    0    0    0
SMALL
NO_CHARGES


@<TRIPOS>ATOM
   1 O1             2.6913    -1.5395    -1.9941 O.2     
   2 O2            -0.3656     1.6468     7.4932 O.2     
   3 O3            -2.5570     1.2444    14.5845 O.2     
   4 O4            -3.1264    -0.3535    13.3303 O.2     
   5 N5             0.9627     1.0754     1.5908 N.3     
   6 N6             2.2167     0.2364    -0.7520 N.am    
   7 N7             0.8299     2.5256     5.0290 N.pl3   
   8 N8             0.0576     3.1923     9.1414 N.am    
   9 N9             0.7371     4.4085     9.2062 N.2     
  10 N10           -2.5596     0.7129    13.4886 N.pl3   
  11 C11            0.6398    -0.2487     1.0429 C.3     
  12 C12            2.3776     1.4092     1.3793 C.3     
  13 C13            0.8514    -0.2354    -0.4747 C.3     
  14 C14            2.6604     1.4905    -0.1246 C.3     
  15 C15            0.6099     1.1564     3.0145 C.3     
  16 C16            3.0394    -0.4622    -1.5591 C.2     
  17 C17            1.1817     2.4449     3.6092 C.3     
  18 C18            4.3919     0.0952    -1.9211 C.3     
  19 C19            5.3146    -1.0459    -2.3540 C.3     
  20 C20            4.2411     1.0932    -3.0710 C.3     
  21 C21            1.2301     3.5832     5.7638 C.2     
  22 C22            0.8976     3.6595     7.1056 C.2     
  23 C23            1.2439     4.7280     8.0549 C.2     
  24 C24            0.1217     2.6918     7.8910 C.2     
  25 C25           -0.5916     2.5776    10.2193 C.ar    
  26 C26            2.0418     5.9687     7.7467 C.3     
  27 C27           -0.5896     3.1824    11.4695 C.ar    
  28 C28           -1.2437     1.3648    10.0390 C.ar    
  29 C29           -1.2307     2.5736    12.5305 C.ar    
  30 C30           -1.8829     0.7611    11.1041 C.ar    
  31 C31           -1.8738     1.3629    12.3491 C.ar    
  32 H32            1.2906    -0.9977     1.4943 H       
  33 H33           -0.4002    -0.4898     1.2630 H       
  34 H34            2.5978     2.3705     1.8433 H       
  35 H35            3.0041     0.6371     1.8260 H       
  36 H36            0.1303     0.4373    -0.9391 H       
  37 H37            0.7246    -1.2428    -0.8710 H       
  38 H38            3.7295     1.6241    -0.2894 H       
  39 H39            2.1131     2.3290    -0.5553 H       
  40 H40           -0.4749     1.1574     3.1206 H       
  41 H41            1.0256     0.2974     3.5413 H       
  42 H42            0.7661     3.3039     3.0825 H       
  43 H43            2.2666     2.4438     3.5032 H       
  44 H44            4.8203     0.6003    -1.0554 H       
  45 H45            4.8863    -1.5511    -3.2197 H       
  46 H46            6.2929    -0.6428    -2.6158 H       
  47 H47            5.4221    -1.7569    -1.5348 H       
  48 H48            3.8460     0.5802    -3.9478 H       
  49 H49            3.5557     1.8874    -2.7751 H       
  50 H50            5.2141     1.5229    -3.3091 H       
  51 H51            0.3091     1.8183     5.4406 H       
  52 H52            1.8100     4.3707     5.3055 H       
  53 H53            2.1357     6.5737     8.6486 H       
  54 H54            3.0337     5.6848     7.3949 H       
  55 H55            1.5333     6.5451     6.9738 H       
  56 H56           -0.0869     4.1276    11.6119 H       
  57 H57           -1.2511     0.8943     9.0669 H       
  58 H58           -1.2295     3.0434    13.5029 H       
  59 H59           -2.3905    -0.1819    10.9644 H       
@<TRIPOS>BOND
   1    1   16 2
   2    2   24 2
   3    3   10 2
   4    4   10 2
   5    5   11 1
   6    5   12 1
   7    5   15 1
   8    6   13 1
   9    6   14 1
  10    6   16 am
  11    7   17 1
  12    7   21 1
  13    7   51 1
  14    8    9 1
  15    8   24 am
  16    8   25 1
  17    9   23 2
  18   10   31 1
  19   11   13 1
  20   11   32 1
  21   11   33 1
  22   12   14 1
  23   12   34 1
  24   12   35 1
  25   13   36 1
  26   13   37 1
  27   14   38 1
  28   14   39 1
  29   15   17 1
  30   15   40 1
  31   15   41 1
  32   16   18 1
  33   17   42 1
  34   17   43 1
  35   18   19 1
  36   18   20 1
  37   18   44 1
  38   19   45 1
  39   19   46 1
  40   19   47 1
  41   20   48 1
  42   20   49 1
  43   20   50 1
  44   21   22 2
  45   21   52 1
  46   22   23 1
  47   22   24 1
  48   23   26 1
  49   25   27 ar
  50   25   28 ar
  51   26   53 1
  52   26   54 1
  53   26   55 1
  54   27   29 ar
  55   27   56 1
  56   28   30 ar
  57   28   57 1
  58   29   31 ar
  59   29   58 1
  60   30   31 ar
  61   30   59 1

#	End of record

#	Name: 5720710
#	Creating user name:	landrgr1
#	Creation time:	28. 01. 2015 13:52

#	Modifying user name:	landrgr1
#	Modification time:	28. 01. 2015 13:52

#	Program:	corina 3.48 0006  22.01.2010

@<TRIPOS>MOLECULE
5720710
  37   38    0    0    0
SMALL
NO_CHARGES


@<TRIPOS>ATOM
   1 O1            -2.2327    -2.7285     0.0086 O.2     
   2 N2            -0.0167     1.3826     0.0096 N.pl3   
   3 N3             1.3541    -4.8129    -0.0381 N.pl3   
   4 N4             1.4092    -6.2128    -0.0461 N.pl3   
   5 N5             0.3265    -7.1096    -0.0406 N.2     
   6 N6             2.1093    -8.2416    -0.0636 N.2     
   7 N7             3.8283    -6.5536    -0.0842 N.pl3   
   8 N8             0.8264    -8.2978    -0.0517 N.2     
   9 C9             0.0021    -0.0041     0.0020 C.2     
  10 C10            1.2419     2.1323     0.0017 C.3     
  11 C11           -1.2953     2.0978     0.0196 C.3     
  12 C12           -1.1923    -0.6982     0.0097 C.2     
  13 C13            1.2322    -0.6750    -0.0191 C.2     
  14 C14            0.1101    -2.7959    -0.0150 C.2     
  15 C15            1.6663     2.4010    -1.4435 C.3     
  16 C16           -1.7335     2.3389     1.4655 C.3     
  17 C17           -1.1838    -2.0981     0.0016 C.2     
  18 C18            1.2979    -2.0288    -0.0277 C.2     
  19 C19            0.1648    -4.1873    -0.0229 C.2     
  20 C20            2.5157    -6.9912    -0.0667 C.2     
  21 H21            1.1036     3.0801     0.5219 H       
  22 H22            2.0143     1.5509     0.5050 H       
  23 H23           -1.1803     3.0547    -0.4896 H       
  24 H24           -2.0493     1.5012    -0.4939 H       
  25 H25           -2.1299    -0.1625     0.0222 H       
  26 H26            2.1471    -0.1012    -0.0292 H       
  27 H27            2.6027     2.9588    -1.4495 H       
  28 H28            1.8046     1.4533    -1.9638 H       
  29 H29            0.8938     2.9825    -1.9469 H       
  30 H30           -2.6848     2.8710     1.4729 H       
  31 H31           -1.8485     1.3820     1.9747 H       
  32 H32           -0.9795     2.9355     1.9790 H       
  33 H33            2.2585    -2.5222    -0.0441 H       
  34 H34           -0.7485    -4.7637    -0.0169 H       
  35 H35            2.1744    -4.2952    -0.0435 H       
  36 H36            4.0228    -5.6033    -0.0822 H       
  37 H37            4.5540    -7.1971    -0.0984 H       
@<TRIPOS>BOND
   1    1   17 2
   2    2    9 1
   3    2   10 1
   4    2   11 1
   5    3    4 1
   6    3   19 1
   7    3   35 1
   8    4    5 1
   9    4   20 1
  10    5    8 2
  11    6    8 1
  12    6   20 2
  13    7   20 1
  14    7   36 1
  15    7   37 1
  16    9   12 2
  17    9   13 1
  18   10   15 1
  19   10   21 1
  20   10   22 1
  21   11   16 1
  22   11   23 1
  23   11   24 1
  24   12   17 1
  25   12   25 1
  26   13   18 2
  27   13   26 1
  28   14   17 1
  29   14   18 1
  30   14   19 2
  31   15   27 1
  32   15   28 1
  33   15   29 1
  34   16   30 1
  35   16   31 1
  36   16   32 1
  37   18   33 1
  38   19   34 1

#	End of record

#	Name: 5717823
#	Creating user name:	landrgr1
#	Creation time:	28. 01. 2015 13:52

#	Modifying user name:	landrgr1
#	Modification time:	28. 01. 2015 13:52

#	Program:	corina 3.48 0006  22.01.2010

@<TRIPOS>MOLECULE
5717823
  31   32    0    0    0
SMALL
NO_CHARGES


@<TRIPOS>ATOM
   1 O1            -0.5054    -3.0524    -0.0080 O.2     
   2 N2            -0.0169     1.3968     0.0097 N.pl3   
   3 N3             0.0021    -0.0041     0.0020 N.pl3   
   4 N4            -3.2944    -1.2429     0.0273 N.2     
   5 N5            -2.7013    -2.3792     0.0158 N.2     
   6 C6             1.1831     2.1115     0.0021 C.ar    
   7 C7             1.1660     3.5003     0.0097 C.ar    
   8 C8             3.5603     3.5275    -0.0125 C.ar    
   9 C9             2.3545     4.2041     0.0026 C.ar    
  10 C10            2.3964     1.4349    -0.0073 C.ar    
  11 C11            3.5809     2.1446    -0.0143 C.ar    
  12 C12           -1.1733    -0.7042     0.0095 C.2     
  13 C13           -0.1477     4.2386     0.0252 C.3     
  14 C14           -2.4430    -0.2107     0.0243 C.2     
  15 C15            4.8550     4.2987    -0.0207 C.3     
  16 C16           -1.3625    -2.2009     0.0038 C.2     
  17 C17           -2.8234     1.2475     0.0348 C.3     
  18 H18            2.3420     5.2840     0.0086 H       
  19 H19            2.4132     0.3550    -0.0088 H       
  20 H20           -0.8635     1.8703     0.0163 H       
  21 H21            4.5244     1.6192    -0.0265 H       
  22 H22            0.8486    -0.4776    -0.0086 H       
  23 H23           -0.4554     4.4110     1.0565 H       
  24 H24           -0.0329     5.1952    -0.4845 H       
  25 H25           -0.9049     3.6434    -0.4852 H       
  26 H26            5.1769     4.4791     1.0049 H       
  27 H27            5.6176     3.7228    -0.5449 H       
  28 H28            4.7068     5.2520    -0.5280 H       
  29 H29           -3.9095     1.3396     0.0459 H       
  30 H30           -2.4092     1.7246     0.9230 H       
  31 H31           -2.4267     1.7330    -0.8568 H       
@<TRIPOS>BOND
   1    1   16 2
   2    2    3 1
   3    2    6 1
   4    2   20 1
   5    3   12 1
   6    3   22 1
   7    4    5 2
   8    4   14 1
   9    5   16 1
  10    6    7 ar
  11    6   10 ar
  12    7    9 ar
  13    7   13 1
  14    8    9 ar
  15    8   11 ar
  16    8   15 1
  17    9   18 1
  18   10   11 ar
  19   10   19 1
  20   11   21 1
  21   12   14 2
  22   12   16 1
  23   13   23 1
  24   13   24 1
  25   13   25 1
  26   14   17 1
  27   15   26 1
  28   15   27 1
  29   15   28 1
  30   17   29 1
  31   17   30 1
  32   17   31 1

#	End of record

#	Name: 5717622
#	Creating user name:	landrgr1
#	Creation time:	28. 01. 2015 13:52

#	Modifying user name:	landrgr1
#	Modification time:	28. 01. 2015 13:52

#	Program:	corina 3.48 0006  22.01.2010

@<TRIPOS>MOLECULE
5717622
  44   44    0    0    0
SMALL
NO_CHARGES


@<TRIPOS>ATOM
   1 O1            -0.1598     1.7808    -0.3752 O.3     
   2 O2             2.0288     1.4618    -0.1802 O.2     
   3 O3             5.0069     4.6624     1.1546 O.2     
   4 O4             9.6293     2.5858     1.2119 O.3     
   5 O5             8.3517     1.2308     0.0038 O.2     
   6 N6             3.7291     3.3067    -0.0541 N.am    
   7 C7            -1.9759    -1.4947    -0.8733 C.3     
   8 C8            -3.4588    -1.8235    -1.0572 C.3     
   9 C9            -1.8049     0.0172    -0.7121 C.3     
  10 C10           -3.6298    -3.3354    -1.2184 C.3     
  11 C11           -0.3221     0.3460    -0.5282 C.3     
  12 C12           -5.1127    -3.6642    -1.4022 C.3     
  13 C13            1.3361     3.6845    -0.0404 C.ar    
  14 C14            1.0954     2.2395    -0.2024 C.2     
  15 C15            2.6485     4.1785     0.0292 C.ar    
  16 C16            0.2600     4.5717     0.0392 C.ar    
  17 C17            2.8621     5.5420     0.1820 C.ar    
  18 C18            0.4919     5.9218     0.1908 C.ar    
  19 C19            1.7881     6.4054     0.2653 C.ar    
  20 C20            4.9115     3.6443     0.4976 C.2     
  21 C21            6.0905     2.7777     0.3040 C.2     
  22 C22            7.2688     3.1142     0.8538 C.2     
  23 C23            8.4470     2.2482     0.6603 C.2     
  24 H24           -1.5993    -1.9998     0.0162 H       
  25 H25           -1.4179    -1.8324    -1.7466 H       
  26 H26           -4.0169    -1.4858    -0.1839 H       
  27 H27           -3.8354    -1.3184    -1.9466 H       
  28 H28           -2.1815     0.5223    -1.6015 H       
  29 H29           -2.3630     0.3548     0.1612 H       
  30 H30           -3.0717    -3.6730    -2.0917 H       
  31 H31           -3.2532    -3.8405    -0.3289 H       
  32 H32            0.2360     0.0083    -1.4015 H       
  33 H33            0.0545    -0.1591     0.3613 H       
  34 H34           -5.6707    -3.3265    -0.5289 H       
  35 H35           -5.4893    -3.1590    -2.2917 H       
  36 H36           -5.2345    -4.7412    -1.5171 H       
  37 H37           -0.7524     4.2001    -0.0183 H       
  38 H38            3.8695     5.9275     0.2360 H       
  39 H39           -0.3412     6.6064     0.2518 H       
  40 H40            1.9595     7.4650     0.3848 H       
  41 H41            3.6316     2.4556    -0.5092 H       
  42 H42            6.0058     1.8730    -0.2798 H       
  43 H43            7.3536     4.0189     1.4375 H       
  44 H44           10.3727     1.9871     1.0575 H       
@<TRIPOS>BOND
   1    1   11 1
   2    1   14 1
   3    2   14 2
   4    3   20 2
   5    4   23 1
   6    4   44 1
   7    5   23 2
   8    6   15 1
   9    6   20 am
  10    6   41 1
  11    7    8 1
  12    7    9 1
  13    7   24 1
  14    7   25 1
  15    8   10 1
  16    8   26 1
  17    8   27 1
  18    9   11 1
  19    9   28 1
  20    9   29 1
  21   10   12 1
  22   10   30 1
  23   10   31 1
  24   11   32 1
  25   11   33 1
  26   12   34 1
  27   12   35 1
  28   12   36 1
  29   13   14 1
  30   13   15 ar
  31   13   16 ar
  32   15   17 ar
  33   16   18 ar
  34   16   37 1
  35   17   19 ar
  36   17   38 1
  37   18   19 ar
  38   18   39 1
  39   19   40 1
  40   20   21 1
  41   21   22 2
  42   21   42 1
  43   22   23 1
  44   22   43 1

#	End of record

#	Name: 5710009
#	Creating user name:	landrgr1
#	Creation time:	28. 01. 2015 13:52

#	Modifying user name:	landrgr1
#	Modification time:	28. 01. 2015 13:52

#	Program:	corina 3.48 0006  22.01.2010

@<TRIPOS>MOLECULE
5710009
  28   29    0    0    0
SMALL
NO_CHARGES


@<TRIPOS>ATOM
   1 O1             3.4942     3.6307     0.5764 O.2     
   2 O2            -1.1756     3.6203     0.5364 O.2     
   3 O3             1.1460     7.3410     1.1416 O.2     
   4 O4            -3.2831    -0.5213     1.2934 O.2     
   5 O5            -2.6551     1.0361     0.0165 O.2     
   6 N6             0.0047     1.3686     0.3201 N.pl3   
   7 N7             2.3331     5.5161     0.8638 N.am    
   8 N8            -0.0281     5.5109     0.8436 N.am    
   9 N9            -2.4435    -0.0343     0.5577 N.pl3   
  10 C10            0.0181    -0.0246     0.2101 C.ar    
  11 C11            1.1600     3.4233     0.5250 C.2     
  12 C12           -1.1657    -0.7432     0.3214 C.ar    
  13 C13            1.1649     2.0574     0.3098 C.2     
  14 C14            1.2142    -0.6935    -0.0165 C.ar    
  15 C15            2.4144     4.1859     0.6553 C.2     
  16 C16           -0.0998     4.1803     0.6338 C.2     
  17 C17           -1.1490    -2.1196     0.2117 C.ar    
  18 C18            1.2238    -2.0704    -0.1251 C.ar    
  19 C19            0.0445    -2.7829    -0.0086 C.ar    
  20 C20            1.1503     6.1405     0.9523 C.2     
  21 H21           -0.8389     1.8408     0.3998 H       
  22 H22            2.0974     1.5418     0.1335 H       
  23 H23            2.1356    -0.1375    -0.1079 H       
  24 H24           -2.0688    -2.6788     0.2985 H       
  25 H25            3.1493     6.0321     0.9559 H       
  26 H26           -0.8480     6.0238     0.9176 H       
  27 H27            2.1534    -2.5910    -0.3013 H       
  28 H28            0.0549    -3.8595    -0.0936 H       
@<TRIPOS>BOND
   1    1   15 2
   2    2   16 2
   3    3   20 2
   4    4    9 2
   5    5    9 2
   6    6   10 1
   7    6   13 1
   8    6   21 1
   9    7   15 am
  10    7   20 am
  11    7   25 1
  12    8   16 am
  13    8   20 am
  14    8   26 1
  15    9   12 1
  16   10   12 ar
  17   10   14 ar
  18   11   13 2
  19   11   15 1
  20   11   16 1
  21   12   17 ar
  22   13   22 1
  23   14   18 ar
  24   14   23 1
  25   17   19 ar
  26   17   24 1
  27   18   19 ar
  28   18   27 1
  29   19   28 1

#	End of record

#	Name: 5707816
#	Creating user name:	landrgr1
#	Creation time:	28. 01. 2015 13:52

#	Modifying user name:	landrgr1
#	Modification time:	28. 01. 2015 13:52

#	Program:	corina 3.48 0006  22.01.2010

@<TRIPOS>MOLECULE
5707816
  40   42    0    0    0
SMALL
NO_CHARGES


@<TRIPOS>ATOM
   1 S1             0.0273     1.7433    -0.0460 S.3     
   2 O2             3.2254     4.0565     0.5774 O.3     
   3 O3             1.4894    -2.9685     0.7264 O.2     
   4 O4             1.1054     4.3198     0.0120 O.2     
   5 N5            -1.0757    -0.7966    -0.1134 N.pl3   
   6 N6             0.9444    -8.3335     0.3693 N.pl3   
   7 N7             1.0655    -0.7377     0.4297 N.2     
   8 N8             0.4219    -9.4635     1.0192 N.2     
   9 N9             2.3303    -9.9637     0.1655 N.2     
  10 C10           -0.8236    -4.5656     0.0941 C.ar    
  11 C11           -0.6825    -2.1223     0.0991 C.2     
  12 C12            0.3513    -7.0698     0.2767 C.ar    
  13 C13           -1.4461    -3.2388    -0.0026 C.2     
  14 C14           -1.4743    -5.5985     0.7802 C.ar    
  15 C15            0.4198    -4.8036    -0.5044 C.ar    
  16 C16           -0.8866    -6.8402     0.8680 C.ar    
  17 C17            0.9990    -6.0488    -0.4108 C.ar    
  18 C18            0.0173    -0.0126     0.1002 C.2     
  19 C19            0.7463    -2.0382     0.4577 C.2     
  20 C20            1.7561     2.0834     0.3681 C.3     
  21 C21            2.1340    -8.7074    -0.1425 C.2     
  22 C22            2.0048     3.5685     0.3060 C.2     
  23 C23            3.3921     5.4967     0.4981 C.3     
  24 C24            1.2936   -10.4256     0.8644 C.2     
  25 C25            4.8384     5.8622     0.8377 C.3     
  26 H26           -2.5119    -3.1521    -0.1546 H       
  27 H27           -2.4353    -5.4212     1.2400 H       
  28 H28            0.9233    -4.0115    -1.0387 H       
  29 H29           -1.3857    -7.6364     1.4005 H       
  30 H30            1.9602    -6.2320    -0.8679 H       
  31 H31           -1.9607    -0.4929    -0.3693 H       
  32 H32            1.9666     1.7215     1.3745 H       
  33 H33            2.4069     1.5760    -0.3440 H       
  34 H34            2.8071    -8.0800    -0.7080 H       
  35 H35            3.1595     5.8343    -0.5119 H       
  36 H36            2.7193     5.9799     1.2066 H       
  37 H37            1.1930   -11.4305     1.2469 H       
  38 H38            4.9636     6.9434     0.7782 H       
  39 H39            5.0710     5.5246     1.8477 H       
  40 H40            5.5112     5.3790     0.1292 H       
@<TRIPOS>BOND
   1    1   18 1
   2    1   20 1
   3    2   22 1
   4    2   23 1
   5    3   19 2
   6    4   22 2
   7    5   11 1
   8    5   18 1
   9    5   31 1
  10    6    8 1
  11    6   12 1
  12    6   21 1
  13    7   18 2
  14    7   19 1
  15    8   24 2
  16    9   21 2
  17    9   24 1
  18   10   13 1
  19   10   14 ar
  20   10   15 ar
  21   11   13 2
  22   11   19 1
  23   12   16 ar
  24   12   17 ar
  25   13   26 1
  26   14   16 ar
  27   14   27 1
  28   15   17 ar
  29   15   28 1
  30   16   29 1
  31   17   30 1
  32   20   22 1
  33   20   32 1
  34   20   33 1
  35   21   34 1
  36   23   25 1
  37   23   35 1
  38   23   36 1
  39   24   37 1
  40   25   38 1
  41   25   39 1
  42   25   40 1

#	End of record

#	Name: 5707815
#	Creating user name:	landrgr1
#	Creation time:	28. 01. 2015 13:52

#	Modifying user name:	landrgr1
#	Modification time:	28. 01. 2015 13:52

#	Program:	corina 3.48 0006  22.01.2010

@<TRIPOS>MOLECULE
5707815
  41   43    0    0    0
SMALL
NO_CHARGES


@<TRIPOS>ATOM
   1 S1             0.0273     1.7433    -0.0460 S.3     
   2 O2             1.4894    -2.9685     0.7264 O.2     
   3 O3             2.8843     6.3622     2.4725 O.3     
   4 O4             2.4752     6.2722     0.2914 O.2     
   5 N5            -1.0757    -0.7966    -0.1134 N.pl3   
   6 N6             0.9444    -8.3335     0.3693 N.pl3   
   7 N7             1.0655    -0.7377     0.4297 N.2     
   8 N8             0.4219    -9.4635     1.0192 N.2     
   9 N9             2.3303    -9.9637     0.1655 N.2     
  10 C10           -0.8236    -4.5656     0.0941 C.ar    
  11 C11           -0.6825    -2.1223     0.0991 C.2     
  12 C12            0.3513    -7.0698     0.2767 C.ar    
  13 C13           -1.4461    -3.2388    -0.0026 C.2     
  14 C14           -1.4743    -5.5985     0.7802 C.ar    
  15 C15            0.4198    -4.8036    -0.5044 C.ar    
  16 C16           -0.8866    -6.8402     0.8680 C.ar    
  17 C17            0.9990    -6.0488    -0.4108 C.ar    
  18 C18            0.0173    -0.0126     0.1002 C.2     
  19 C19            0.7463    -2.0382     0.4577 C.2     
  20 C20            1.7561     2.0834     0.3681 C.3     
  21 C21            2.1340    -8.7074    -0.1425 C.2     
  22 C22            2.0048     3.5685     0.3060 C.2     
  23 C23            1.2936   -10.4256     0.8644 C.2     
  24 C24            2.3212     4.2370     1.4124 C.2     
  25 C25            2.5637     5.6851     1.3519 C.2     
  26 C26            3.1099     7.7903     2.3380 C.3     
  27 H27           -2.5119    -3.1521    -0.1546 H       
  28 H28           -2.4353    -5.4212     1.2400 H       
  29 H29            0.9233    -4.0115    -1.0387 H       
  30 H30           -1.3857    -7.6364     1.4005 H       
  31 H31            1.9602    -6.2320    -0.8679 H       
  32 H32           -1.9607    -0.4929    -0.3693 H       
  33 H33            1.9666     1.7215     1.3745 H       
  34 H34            2.4069     1.5760    -0.3440 H       
  35 H35            2.8071    -8.0800    -0.7080 H       
  36 H36            1.9261     4.0902    -0.6363 H       
  37 H37            1.1930   -11.4305     1.2469 H       
  38 H38            2.3999     3.7152     2.3547 H       
  39 H39            3.3592     8.2120     3.3117 H       
  40 H40            3.9330     7.9644     1.6450 H       
  41 H41            2.2067     8.2664     1.9563 H       
@<TRIPOS>BOND
   1    1   18 1
   2    1   20 1
   3    2   19 2
   4    3   25 1
   5    3   26 1
   6    4   25 2
   7    5   11 1
   8    5   18 1
   9    5   32 1
  10    6    8 1
  11    6   12 1
  12    6   21 1
  13    7   18 2
  14    7   19 1
  15    8   23 2
  16    9   21 2
  17    9   23 1
  18   10   13 1
  19   10   14 ar
  20   10   15 ar
  21   11   13 2
  22   11   19 1
  23   12   16 ar
  24   12   17 ar
  25   13   27 1
  26   14   16 ar
  27   14   28 1
  28   15   17 ar
  29   15   29 1
  30   16   30 1
  31   17   31 1
  32   20   22 1
  33   20   33 1
  34   20   34 1
  35   21   35 1
  36   22   24 2
  37   22   36 1
  38   23   37 1
  39   24   25 1
  40   24   38 1
  41   26   39 1
  42   26   40 1
  43   26   41 1

#	End of record

#	Name: 5702223
#	Creating user name:	landrgr1
#	Creation time:	28. 01. 2015 13:52

#	Modifying user name:	landrgr1
#	Modification time:	28. 01. 2015 13:52

#	Program:	corina 3.48 0006  22.01.2010

@<TRIPOS>MOLECULE
5702223
  41   42    0    0    0
SMALL
NO_CHARGES


@<TRIPOS>ATOM
   1 Cl1            0.2369    -4.5594    -0.4995 Cl      
   2 S2             0.0950     1.7105    -0.2710 S.3     
   3 N3             4.9362     0.3848     4.7628 N.3     
   4 C4             2.4494    -0.0442     0.7119 C.2     
   5 C5             4.2002     0.0751     2.4478 C.3     
   6 C6             1.2790    -0.7457     0.1506 C.ar    
   7 C7             2.7573     1.3556     0.3618 C.ar    
   8 C8             3.2552    -0.6967     1.5632 C.2     
   9 C9             4.0151    -0.3675     3.9006 C.3     
  10 C10            0.1688    -0.0443    -0.3205 C.ar    
  11 C11            1.7650     2.2260    -0.0918 C.ar    
  12 C12            1.2928    -2.1423     0.0919 C.ar    
  13 C13            4.0724     1.8104     0.4890 C.ar    
  14 C14           -0.9138    -0.7507    -0.8443 C.ar    
  15 C15            2.1039     3.5401    -0.4119 C.ar    
  16 C16            0.2138    -2.8250    -0.4290 C.ar    
  17 C17            4.3896     3.1128     0.1680 C.ar    
  18 C18            4.5890     1.8120     4.7854 C.3     
  19 C19            4.9594    -0.1729     6.1216 C.3     
  20 C20           -0.8888    -2.1277    -0.8972 C.ar    
  21 C21            3.4053     3.9763    -0.2821 C.ar    
  22 H22            5.2272    -0.1172     2.1374 H       
  23 H23            3.9885     1.1410     2.3629 H       
  24 H24            3.2267    -1.7751     1.6147 H       
  25 H25            4.2268    -1.4334     3.9855 H       
  26 H26            2.9881    -0.1752     4.2110 H       
  27 H27            2.1508    -2.6881     0.4556 H       
  28 H28            4.8426     1.1395     0.8401 H       
  29 H29           -1.7773    -0.2153    -1.2105 H       
  30 H30            1.3424     4.2203    -0.7639 H       
  31 H31            5.4073     3.4604     0.2681 H       
  32 H32            3.5753     1.9333     5.1671 H       
  33 H33            5.2866     2.3455     5.4310 H       
  34 H34            4.6475     2.2162     3.7748 H       
  35 H35            5.2871    -1.2117     6.0825 H       
  36 H36            5.6491     0.4027     6.7389 H       
  37 H37            3.9591    -0.1235     6.5518 H       
  38 H38           -1.7319    -2.6656    -1.3048 H       
  39 H39            3.6582     4.9959    -0.5329 H       
  40 Cl40          10.6491     9.9959    11.7389 Cl      
  41 H41           10.6491    11.3659    11.7389 H       
@<TRIPOS>BOND
   1    1   16 1
   2    2   10 1
   3    2   11 1
   4    3    9 1
   5    3   18 1
   6    3   19 1
   7    4    6 1
   8    4    7 1
   9    4    8 2
  10    5    8 1
  11    5    9 1
  12    5   22 1
  13    5   23 1
  14    6   10 ar
  15    6   12 ar
  16    7   11 ar
  17    7   13 ar
  18    8   24 1
  19    9   25 1
  20    9   26 1
  21   10   14 ar
  22   11   15 ar
  23   12   16 ar
  24   12   27 1
  25   13   17 ar
  26   13   28 1
  27   14   20 ar
  28   14   29 1
  29   15   21 ar
  30   15   30 1
  31   16   20 ar
  32   17   21 ar
  33   17   31 1
  34   18   32 1
  35   18   33 1
  36   18   34 1
  37   19   35 1
  38   19   36 1
  39   19   37 1
  40   20   38 1
  41   21   39 1
  42   40   41 1

#	End of record

#	Name: 5688359
#	Creating user name:	landrgr1
#	Creation time:	28. 01. 2015 13:52

#	Modifying user name:	landrgr1
#	Modification time:	28. 01. 2015 13:52

#	Program:	corina 3.48 0006  22.01.2010

@<TRIPOS>MOLECULE
5688359
  25   27    0    0    0
SMALL
NO_CHARGES


@<TRIPOS>ATOM
   1 Cl1            5.7609    -0.9605    -0.1917 Cl      
   2 O2            -0.0137     1.2068     0.0370 O.3     
   3 O3             2.5007     7.1497     0.0148 O.2     
   4 N4             0.0025    -0.0042     0.0225 N.pl3   
   5 C5             2.1170     0.6531    -0.0445 C.ar    
   6 C6             1.2131     1.7394    -0.0002 C.2     
   7 C7             1.2781    -0.4871    -0.0281 C.ar    
   8 C8             1.5519     3.1629     0.0038 C.2     
   9 C9             3.5031     0.4979    -0.0948 C.ar    
  10 C10            1.8529    -1.7530    -0.0629 C.ar    
  11 C11            4.0377    -0.7597    -0.1285 C.ar    
  12 C12            3.2130    -1.8804    -0.1123 C.ar    
  13 C13            0.5346     4.1275    -0.0878 C.2     
  14 C14            2.8940     3.5655     0.1050 C.2     
  15 C15            0.8500     5.4513    -0.0841 C.2     
  16 C16            3.2088     4.8894     0.1087 C.2     
  17 C17            2.1921     5.8532     0.0112 C.2     
  18 H18            4.1479     1.3642    -0.1080 H       
  19 H19           -0.7914    -0.5611     0.0446 H       
  20 H20            1.2266    -2.6328    -0.0505 H       
  21 H21            3.6542    -2.8658    -0.1388 H       
  22 H22           -0.4976     3.8185    -0.1615 H       
  23 H23            3.6759     2.8243     0.1803 H       
  24 H24            0.0680     6.1929    -0.1549 H       
  25 H25            4.2406     5.1989     0.1865 H       
@<TRIPOS>BOND
   1    1   11 1
   2    2    4 1
   3    2    6 1
   4    3   17 2
   5    4    7 1
   6    4   19 1
   7    5    6 1
   8    5    7 ar
   9    5    9 ar
  10    6    8 2
  11    7   10 ar
  12    8   13 1
  13    8   14 1
  14    9   11 ar
  15    9   18 1
  16   10   12 ar
  17   10   20 1
  18   11   12 ar
  19   12   21 1
  20   13   15 2
  21   13   22 1
  22   14   16 2
  23   14   23 1
  24   15   17 1
  25   15   24 1
  26   16   17 1
  27   16   25 1

#	End of record

#	Name: 5687134
#	Creating user name:	landrgr1
#	Creation time:	28. 01. 2015 13:52

#	Modifying user name:	landrgr1
#	Modification time:	28. 01. 2015 13:52

#	Program:	corina 3.48 0006  22.01.2010

@<TRIPOS>MOLECULE
5687134
  50   52    0    0    0
SMALL
NO_CHARGES


@<TRIPOS>ATOM
   1 S1            -0.0471     1.8030     0.2477 S.3     
   2 O2            -5.6888    -0.7210     1.7175 O.3     
   3 O3            -3.3814    -1.7933     1.1505 O.2     
   4 O4            -7.1249     0.9751     1.7462 O.2     
   5 N5            -2.4263    -0.0214     0.2175 N.am    
   6 C6            -1.1959    -0.6829     0.1093 C.ar    
   7 C7            -0.0064     0.0468     0.1108 C.ar    
   8 C8            -1.1563    -2.0647     0.0061 C.ar    
   9 C9             1.2085    -0.6149     0.0037 C.ar    
  10 C10          -10.1363    -1.2909     3.6413 C.ar    
  11 C11          -12.0715    -2.8417     4.8755 C.ar    
  12 C12            0.0591    -2.7157    -0.1002 C.ar    
  13 C13            1.2376    -1.9926    -0.1040 C.ar    
  14 C14          -11.3826    -0.7402     3.9565 C.ar    
  15 C15           -9.8719    -2.6284     3.9525 C.ar    
  16 C16          -12.3406    -1.5187     4.5711 C.ar    
  17 C17          -10.8403    -3.3938     4.5671 C.ar    
  18 C18            1.6424     2.2564     0.0365 C.ar    
  19 C19           -3.4681    -0.6301     0.8179 C.2     
  20 C20           -4.7408     0.1346     1.0761 C.3     
  21 C21           -9.1104    -0.4686     2.9798 C.2     
  22 C22          -13.1242    -3.6854     5.5472 C.3     
  23 C23            2.1191     2.6008    -1.2227 C.ar    
  24 C24            2.5002     2.2759     1.1298 C.ar    
  25 C25           -7.9092    -1.0033     2.6772 C.2     
  26 C26            3.4436     2.9560    -1.3843 C.ar    
  27 C27            3.8235     2.6322     0.9607 C.ar    
  28 C28            4.2957     2.9688    -0.2949 C.ar    
  29 C29           -6.8899    -0.1864     2.0200 C.2     
  30 H30           -2.0747    -2.6329     0.0087 H       
  31 H31           -2.5282     0.8747    -0.1397 H       
  32 H32            2.1311    -0.0535     0.0042 H       
  33 H33            0.0879    -3.7924    -0.1798 H       
  34 H34            2.1841    -2.5062    -0.1872 H       
  35 H35          -11.5941     0.2920     3.7196 H       
  36 H36           -8.9120    -3.0608     3.7119 H       
  37 H37          -13.3037    -1.0950     4.8149 H       
  38 H38          -10.6379    -4.4270     4.8078 H       
  39 H39           -5.1513     0.4869     0.1298 H       
  40 H40           -4.5277     0.9879     1.7199 H       
  41 H41           -9.3191     0.5627     2.7367 H       
  42 H42          -13.7368    -4.1734     4.7892 H       
  43 H43          -12.6427    -4.4415     6.1673 H       
  44 H44          -13.7544    -3.0514     6.1708 H       
  45 H45            1.4544     2.5903    -2.0739 H       
  46 H46            2.1322     2.0132     2.1106 H       
  47 H47           -7.7005    -2.0347     2.9204 H       
  48 H48            3.8147     3.2237    -2.3625 H       
  49 H49            4.4906     2.6479     1.8099 H       
  50 H50            5.3314     3.2463    -0.4244 H       
@<TRIPOS>BOND
   1    1    7 1
   2    1   18 1
   3    2   20 1
   4    2   29 1
   5    3   19 2
   6    4   29 2
   7    5    6 1
   8    5   19 am
   9    5   31 1
  10    6    7 ar
  11    6    8 ar
  12    7    9 ar
  13    8   12 ar
  14    8   30 1
  15    9   13 ar
  16    9   32 1
  17   10   14 ar
  18   10   15 ar
  19   10   21 1
  20   11   16 ar
  21   11   17 ar
  22   11   22 1
  23   12   13 ar
  24   12   33 1
  25   13   34 1
  26   14   16 ar
  27   14   35 1
  28   15   17 ar
  29   15   36 1
  30   16   37 1
  31   17   38 1
  32   18   23 ar
  33   18   24 ar
  34   19   20 1
  35   20   39 1
  36   20   40 1
  37   21   25 2
  38   21   41 1
  39   22   42 1
  40   22   43 1
  41   22   44 1
  42   23   26 ar
  43   23   45 1
  44   24   27 ar
  45   24   46 1
  46   25   29 1
  47   25   47 1
  48   26   28 ar
  49   26   48 1
  50   27   28 ar
  51   27   49 1
  52   28   50 1

#	End of record

#	Name: 5685355
#	Creating user name:	landrgr1
#	Creation time:	28. 01. 2015 13:52

#	Modifying user name:	landrgr1
#	Modification time:	28. 01. 2015 13:52

#	Program:	corina 3.48 0006  22.01.2010

@<TRIPOS>MOLECULE
5685355
  29   31    0    0    0
SMALL
NO_CHARGES


@<TRIPOS>ATOM
   1 S1             0.8626     1.9969    -0.7450 S.3     
   2 F2            -1.0619    -1.5497    -0.1700 F       
   3 F3            -1.1119    -3.4077     1.1583 F       
   4 F4            -1.1112    -3.6288    -1.1156 F       
   5 O5             2.8269    -3.7254    -0.0260 O.3     
   6 O6             5.4763    -3.7756    -0.2676 O.3     
   7 O7             7.9040     0.2881    -0.0415 O.2     
   8 N8             1.6507    -4.0033    -0.0268 N.pl3   
   9 N9             1.1212     0.3106     1.0471 N.2     
  10 C10            1.7364    -1.8182    -0.0431 C.2     
  11 C11            3.0202    -2.4001    -0.0355 C.2     
  12 C12            0.8777    -2.9113    -0.0371 C.2     
  13 C13            4.3067    -1.6970    -0.0371 C.2     
  14 C14            1.3839    -0.3758    -0.0549 C.2     
  15 C15           -0.6288    -2.8737    -0.0412 C.3     
  16 C16            5.5068    -2.4235    -0.1556 C.2     
  17 C17            4.3431    -0.2994     0.0735 C.2     
  18 C18            1.3038     0.3497    -1.1876 C.2     
  19 C19            6.7134    -1.7559    -0.1569 C.2     
  20 C20            5.5363     0.3564     0.0713 C.2     
  21 C21            6.7374    -0.3610    -0.0405 C.2     
  22 C22            0.8282     1.5576     0.9064 C.2     
  23 H23            1.3077    -4.9106    -0.0212 H       
  24 H24            3.4223     0.2581     0.1602 H       
  25 H25            1.4786    -0.0142    -2.1893 H       
  26 H26            7.6374    -2.3077    -0.2471 H       
  27 H27            5.5585     1.4328     0.1564 H       
  28 H28            0.5937     2.2305     1.7180 H       
  29 H29            6.3497    -4.1837    -0.3436 H       
@<TRIPOS>BOND
   1    1   18 1
   2    1   22 1
   3    2   15 1
   4    3   15 1
   5    4   15 1
   6    5    8 1
   7    5   11 1
   8    6   16 1
   9    6   29 1
  10    7   21 2
  11    8   12 1
  12    8   23 1
  13    9   14 1
  14    9   22 2
  15   10   11 1
  16   10   12 2
  17   10   14 1
  18   11   13 2
  19   12   15 1
  20   13   16 1
  21   13   17 1
  22   14   18 2
  23   16   19 2
  24   17   20 2
  25   17   24 1
  26   18   25 1
  27   19   21 1
  28   19   26 1
  29   20   21 1
  30   20   27 1
  31   22   28 1

#	End of record

#	Name: 5683259
#	Creating user name:	landrgr1
#	Creation time:	28. 01. 2015 13:52

#	Modifying user name:	landrgr1
#	Modification time:	28. 01. 2015 13:52

#	Program:	corina 3.48 0006  22.01.2010

@<TRIPOS>MOLECULE
5683259
  47   49    0    0    0
SMALL
NO_CHARGES


@<TRIPOS>ATOM
   1 S1            -0.0218     1.7577     0.0117 S.3     
   2 O2             3.1127     4.2419    -0.0049 O.3     
   3 O3             5.5095     5.2949    -0.0221 O.2     
   4 O4             0.9082     4.3943     0.0170 O.2     
   5 N5             6.7249     9.1884    -0.0128 N.pl3   
   6 N6             7.3641     7.0680    -0.0293 N.pl3   
   7 N7             3.0739     9.2537     0.0224 N.1     
   8 C8             8.1150     9.1806    -0.0251 C.ar    
   9 C9             8.5182     7.8430    -0.0355 C.ar    
  10 C10            6.2916     7.9012    -0.0156 C.2     
  11 C11            9.0682    10.1890    -0.0279 C.ar    
  12 C12            9.8700     7.5298    -0.0489 C.ar    
  13 C13            4.9451     7.4952    -0.0049 C.2     
  14 C14           10.4107     9.8664    -0.0409 C.ar    
  15 C15           10.8103     8.5408    -0.0520 C.ar    
  16 C16           -1.1907    -0.7168     0.0096 C.ar    
  17 C17            0.0021    -0.0041     0.0020 C.ar    
  18 C18            1.2290    -2.0648    -0.0217 C.ar    
  19 C19            4.6237     6.1274    -0.0092 C.2     
  20 C20            1.2141    -0.6843    -0.0137 C.ar    
  21 C21           -1.1681    -2.0976     0.0015 C.ar    
  22 C22            0.0396    -2.7710    -0.0146 C.ar    
  23 C23            3.1809     5.6923     0.0023 C.3     
  24 C24           -2.5073     0.0160     0.0329 C.3     
  25 C25            1.7399     2.1898    -0.0028 C.3     
  26 C26            2.5425    -2.8032    -0.0387 C.3     
  27 C27            1.8894     3.6894     0.0038 C.2     
  28 C28            3.9017     8.4758     0.0103 C.1     
  29 H29            6.1611     9.9777    -0.0002 H       
  30 H30            7.3306     6.0986    -0.0342 H       
  31 H31            8.7607    11.2243    -0.0202 H       
  32 H32           10.1860     6.4971    -0.0566 H       
  33 H33           11.1523    10.6515    -0.0431 H       
  34 H34           11.8623     8.2966    -0.0625 H       
  35 H35            2.1431    -0.1336    -0.0199 H       
  36 H36           -2.0948    -2.6523     0.0077 H       
  37 H37            0.0542    -3.8508    -0.0216 H       
  38 H38            2.6763     6.0841    -0.8809 H       
  39 H39            2.6933     6.0746     0.8990 H       
  40 H40           -2.8373     0.2028    -0.9890 H       
  41 H41           -3.2514    -0.5899     0.5499 H       
  42 H42           -2.3856     0.9653     0.5546 H       
  43 H43            2.2236     1.7726     0.8804 H       
  44 H44            2.2066     1.7821    -0.8995 H       
  45 H45            2.8693    -2.9871     0.9848 H       
  46 H46            2.4181    -3.7541    -0.5568 H       
  47 H47            3.2903    -2.2025    -0.5564 H       
@<TRIPOS>BOND
   1    1   17 1
   2    1   25 1
   3    2   23 1
   4    2   27 1
   5    3   19 2
   6    4   27 2
   7    5    8 1
   8    5   10 1
   9    5   29 1
  10    6    9 1
  11    6   10 1
  12    6   30 1
  13    7   28 3
  14    8    9 ar
  15    8   11 ar
  16    9   12 ar
  17   10   13 2
  18   11   14 ar
  19   11   31 1
  20   12   15 ar
  21   12   32 1
  22   13   19 1
  23   13   28 1
  24   14   15 ar
  25   14   33 1
  26   15   34 1
  27   16   17 ar
  28   16   21 ar
  29   16   24 1
  30   17   20 ar
  31   18   20 ar
  32   18   22 ar
  33   18   26 1
  34   19   23 1
  35   20   35 1
  36   21   22 ar
  37   21   36 1
  38   22   37 1
  39   23   38 1
  40   23   39 1
  41   24   40 1
  42   24   41 1
  43   24   42 1
  44   25   27 1
  45   25   43 1
  46   25   44 1
  47   26   45 1
  48   26   46 1
  49   26   47 1

#	End of record

#	Name: 5677572
#	Creating user name:	landrgr1
#	Creation time:	28. 01. 2015 13:52

#	Modifying user name:	landrgr1
#	Modification time:	28. 01. 2015 13:52

#	Program:	corina 3.48 0006  22.01.2010

@<TRIPOS>MOLECULE
5677572
  40   43    0    0    0
SMALL
NO_CHARGES


@<TRIPOS>ATOM
   1 O1            -0.0312     1.3458    -0.0966 O.3     
   2 O2             1.0394    -0.5986    -0.2311 O.2     
   3 N3            -0.0463    -2.8334    -0.1278 N.pl3   
   4 N4            -3.4207     0.5291     0.5020 N.1     
   5 C5            -2.4722    -4.2360     0.0852 C.ar    
   6 C6            -1.3728    -4.7579    -0.7471 C.ar    
   7 C7            -2.3772    -2.9057     0.5563 C.ar    
   8 C8            -0.1759    -4.0249    -0.8305 C.ar    
   9 C9            -1.1851    -2.1271     0.1863 C.2     
  10 C10           -3.5817    -5.0042     0.4145 C.ar    
  11 C11           -3.3947    -2.3739     1.3442 C.ar    
  12 C12           -1.5024    -5.9552    -1.4470 C.ar    
  13 C13            0.8663    -4.5010    -1.6146 C.ar    
  14 C14           -1.2079    -0.7270     0.1555 C.2     
  15 C15           -4.5801    -4.4595     1.1970 C.ar    
  16 C16           -4.4877    -3.1545     1.6582 C.ar    
  17 C17           -0.4556    -6.4130    -2.2191 C.ar    
  18 C18            0.7229    -5.6883    -2.3030 C.ar    
  19 C19           -0.0093    -0.0033    -0.0669 C.2     
  20 C20           -2.4418    -0.0266     0.3487 C.1     
  21 C21            1.1541     2.0009    -0.2108 C.ar    
  22 C22            1.7953     2.0683    -1.4393 C.ar    
  23 C23            1.7222     2.6082     0.8998 C.ar    
  24 C24            2.9998     2.7351    -1.5527 C.ar    
  25 C25            2.9268     3.2738     0.7810 C.ar    
  26 C26            3.5664     3.3351    -0.4433 C.ar    
  27 H27            0.8277    -2.5083     0.1393 H       
  28 H28           -3.6629    -6.0213     0.0605 H       
  29 H29           -3.3285    -1.3587     1.7067 H       
  30 H30           -2.4190    -6.5230    -1.3848 H       
  31 H31            1.7880    -3.9426    -1.6859 H       
  32 H32           -5.4430    -5.0564     1.4529 H       
  33 H33           -5.2789    -2.7460     2.2694 H       
  34 H34           -0.5548    -7.3413    -2.7620 H       
  35 H35            1.5353    -6.0556    -2.9124 H       
  36 H36            1.3533     1.5995    -2.3060 H       
  37 H37            1.2228     2.5610     1.8562 H       
  38 H38            3.4995     2.7876    -2.5087 H       
  39 H39            3.3692     3.7471     1.6452 H       
  40 H40            4.5082     3.8559    -0.5341 H       
@<TRIPOS>BOND
   1    1   19 1
   2    1   21 1
   3    2   19 2
   4    3    8 1
   5    3    9 1
   6    3   27 1
   7    4   20 3
   8    5    6 1
   9    5    7 ar
  10    5   10 ar
  11    6    8 ar
  12    6   12 ar
  13    7    9 1
  14    7   11 ar
  15    8   13 ar
  16    9   14 2
  17   10   15 ar
  18   10   28 1
  19   11   16 ar
  20   11   29 1
  21   12   17 ar
  22   12   30 1
  23   13   18 ar
  24   13   31 1
  25   14   19 1
  26   14   20 1
  27   15   16 ar
  28   15   32 1
  29   16   33 1
  30   17   18 ar
  31   17   34 1
  32   18   35 1
  33   21   22 ar
  34   21   23 ar
  35   22   24 ar
  36   22   36 1
  37   23   25 ar
  38   23   37 1
  39   24   26 ar
  40   24   38 1
  41   25   26 ar
  42   25   39 1
  43   26   40 1

#	End of record

#	Name: 5674851
#	Creating user name:	landrgr1
#	Creation time:	28. 01. 2015 13:52

#	Modifying user name:	landrgr1
#	Modification time:	28. 01. 2015 13:52

#	Program:	corina 3.48 0006  22.01.2010

@<TRIPOS>MOLECULE
5674851
  31   32    0    0    0
SMALL
NO_CHARGES


@<TRIPOS>ATOM
   1 Br1            3.1191     2.0988    -8.7433 Br      
   2 S2            -1.3079     1.5697    -0.6268 S.o2    
   3 S3            -3.8987     3.1960     0.0169 S.3     
   4 S4             0.8852     1.9731    -2.6764 S.3     
   5 F5            -1.6964     2.2279    -6.7587 F       
   6 O6            -0.6455     0.5464     0.1035 O.2     
   7 O7            -0.7841     2.8822    -0.7751 O.2     
   8 N8            -0.9603     0.9623    -4.4083 N.pl3   
   9 N9            -1.5334     0.9804    -2.1578 N.am    
  10 C10           -2.9017     1.7496     0.1028 C.2     
  11 C11           -0.0179     1.2252    -5.4104 C.ar    
  12 C12           -0.6652     1.2474    -3.0939 C.2     
  13 C13           -3.5369     0.8094     0.8041 C.2     
  14 C14           -0.4077     1.8622    -6.5834 C.ar    
  15 C15            1.3081     0.8555    -5.2324 C.ar    
  16 C16           -4.7828     1.1792     1.2806 C.2     
  17 C17            0.5258     2.1206    -7.5705 C.ar    
  18 C18            2.2359     1.1164    -6.2222 C.ar    
  19 C19            1.8453     1.7452    -7.3911 C.ar    
  20 C20           -5.1594     2.4196     0.9663 C.2     
  21 C21            1.1015     1.3127    -1.0051 C.3     
  22 H22           -1.8208     0.5793    -4.6401 H       
  23 H23           -3.1115    -0.1664     0.9861 H       
  24 H24            1.6145     0.3646    -4.3205 H       
  25 H25           -5.4032     0.5136     1.8625 H       
  26 H26            0.2246     2.6153    -8.4820 H       
  27 H27            3.2676     0.8287    -6.0835 H       
  28 H28           -6.0951     2.8773     1.2515 H       
  29 H29            2.1632     1.1660    -0.8070 H       
  30 H30            0.6904     2.0158    -0.2807 H       
  31 H31            0.5810     0.3587    -0.9213 H       
@<TRIPOS>BOND
   1    1   19 1
   2    2    6 2
   3    2    7 2
   4    2    9 am
   5    2   10 1
   6    3   10 1
   7    3   20 1
   8    4   12 1
   9    4   21 1
  10    5   14 1
  11    8   11 1
  12    8   12 1
  13    8   22 1
  14    9   12 2
  15   10   13 2
  16   11   14 ar
  17   11   15 ar
  18   13   16 1
  19   13   23 1
  20   14   17 ar
  21   15   18 ar
  22   15   24 1
  23   16   20 2
  24   16   25 1
  25   17   19 ar
  26   17   26 1
  27   18   19 ar
  28   18   27 1
  29   20   28 1
  30   21   29 1
  31   21   30 1
  32   21   31 1

#	End of record

#	Name: 5605146
#	Creating user name:	landrgr1
#	Creation time:	28. 01. 2015 13:52

#	Modifying user name:	landrgr1
#	Modification time:	28. 01. 2015 13:52

#	Program:	corina 3.48 0006  22.01.2010

@<TRIPOS>MOLECULE
5605146
  55   58    0    0    0
SMALL
NO_CHARGES


@<TRIPOS>ATOM
   1 O1            -0.5816     4.1861     0.1777 O.2     
   2 N2            -0.6761     1.6126    -0.3308 N.3     
   3 N3             0.8329     0.1649    -2.2628 N.3     
   4 N4            -1.8749     4.5252     4.4675 N.pl3   
   5 C5            -0.8731     0.1670    -0.5070 C.3     
   6 C6             0.7090     1.9939    -0.6401 C.3     
   7 C7            -0.5522    -0.2164    -1.9535 C.3     
   8 C8             1.0300     1.6105    -2.0866 C.3     
   9 C9            -1.0471     2.0329     1.0270 C.3     
  10 C10            1.2040    -0.2554    -3.6206 C.3     
  11 C11           -0.9272     3.5309     1.1395 C.2     
  12 C12           -1.2177     4.1747     2.3682 C.2     
  13 C13           -1.0219     5.6023     2.6891 C.ar    
  14 C14           -1.7395     3.5937     3.5043 C.2     
  15 C15            2.5286     0.3597    -3.9924 C.2     
  16 C16           -1.4514     5.7589     4.0163 C.ar    
  17 C17           -0.5378     6.6955     1.9772 C.ar    
  18 C18           -2.1022     2.1380     3.6470 C.3     
  19 C19            3.5297    -0.4129    -4.3905 C.2     
  20 C20           -1.3870     7.0157     4.6091 C.ar    
  21 C21           -0.4813     7.9328     2.5820 C.ar    
  22 C22           -0.9050     8.0901     3.8931 C.ar    
  23 C23            4.8289     0.1904    -4.7552 C.ar    
  24 C24            5.8846    -0.6200    -5.1745 C.ar    
  25 C25            5.0030     1.5732    -4.6872 C.ar    
  26 C26            7.0946    -0.0506    -5.5140 C.ar    
  27 C27            6.2181     2.1301    -5.0295 C.ar    
  28 C28            7.2624     1.3206    -5.4394 C.ar    
  29 H29           -0.2113    -0.3752     0.1684 H       
  30 H30           -1.9091    -0.0886    -0.2843 H       
  31 H31            0.8266     3.0703    -0.5145 H       
  32 H32            1.3889     1.4725     0.0337 H       
  33 H33           -1.2320     0.3051    -2.6273 H       
  34 H34           -0.6697    -1.2927    -2.0791 H       
  35 H35            2.0660     1.8661    -2.3093 H       
  36 H36            0.3682     2.1527    -2.7620 H       
  37 H37           -2.0753     1.7344     1.2315 H       
  38 H38           -0.3811     1.5598     1.7485 H       
  39 H39            1.2854    -1.3418    -3.6551 H       
  40 H40            0.4399     0.0743    -4.3245 H       
  41 H41            2.6623     1.4298    -3.9347 H       
  42 H42           -2.2258     4.3534     5.3553 H       
  43 H43           -0.2076     6.5750     0.9560 H       
  44 H44           -3.0990     1.9703     3.2390 H       
  45 H45           -1.3800     1.5286     3.1036 H       
  46 H46           -2.0900     1.8621     4.7014 H       
  47 H47           -1.7147     7.1494     5.6294 H       
  48 H48            3.3960    -1.4830    -4.4482 H       
  49 H49           -0.1061     8.7834     2.0323 H       
  50 H50           -0.8572     9.0640     4.3574 H       
  51 H51            5.7549    -1.6906    -5.2328 H       
  52 H52            4.1884     2.2062    -4.3677 H       
  53 H53            7.9126    -0.6767    -5.8384 H       
  54 H54            6.3541     3.2002    -4.9776 H       
  55 H55            8.2117     1.7614    -5.7059 H       
@<TRIPOS>BOND
   1    1   11 2
   2    2    5 1
   3    2    6 1
   4    2    9 1
   5    3    7 1
   6    3    8 1
   7    3   10 1
   8    4   14 1
   9    4   16 1
  10    4   42 1
  11    5    7 1
  12    5   29 1
  13    5   30 1
  14    6    8 1
  15    6   31 1
  16    6   32 1
  17    7   33 1
  18    7   34 1
  19    8   35 1
  20    8   36 1
  21    9   11 1
  22    9   37 1
  23    9   38 1
  24   10   15 1
  25   10   39 1
  26   10   40 1
  27   11   12 1
  28   12   13 1
  29   12   14 2
  30   13   16 ar
  31   13   17 ar
  32   14   18 1
  33   15   19 2
  34   15   41 1
  35   16   20 ar
  36   17   21 ar
  37   17   43 1
  38   18   44 1
  39   18   45 1
  40   18   46 1
  41   19   23 1
  42   19   48 1
  43   20   22 ar
  44   20   47 1
  45   21   22 ar
  46   21   49 1
  47   22   50 1
  48   23   24 ar
  49   23   25 ar
  50   24   26 ar
  51   24   51 1
  52   25   27 ar
  53   25   52 1
  54   26   28 ar
  55   26   53 1
  56   27   28 ar
  57   27   54 1
  58   28   55 1

#	End of record

#	Name: 5586077
#	Creating user name:	landrgr1
#	Creation time:	28. 01. 2015 13:52

#	Modifying user name:	landrgr1
#	Modification time:	28. 01. 2015 13:52

#	Program:	corina 3.48 0006  22.01.2010

@<TRIPOS>MOLECULE
5586077
  46   50    0    0    0
SMALL
NO_CHARGES


@<TRIPOS>ATOM
   1 Cl1           -0.7085    -7.4256    -0.1178 Cl      
   2 S2            -0.9315     1.8659    -0.0757 S.3     
   3 O3             2.2608    -1.7969     0.4132 O.2     
   4 O4            -0.8903    -5.0002    -0.8817 O.2     
   5 N5            -1.5745    -0.8689    -0.0908 N.pl3   
   6 N6             0.1585    -2.4720     0.1649 N.am    
   7 C7            -2.9952    -0.5400    -0.2771 C.3     
   8 C8            -1.1680    -2.1650    -0.0078 C.2     
   9 C9            -3.9915    -1.6672    -0.3747 C.ar    
  10 C10           -0.6675     0.1797    -0.0023 C.2     
  11 C11           -2.0762    -3.2193    -0.0956 C.2     
  12 C12           -3.5206    -2.9792    -0.2837 C.ar    
  13 C13            0.6750    -0.0940     0.1729 C.2     
  14 C14            1.0884    -1.5075     0.2586 C.2     
  15 C15            1.4771     1.1150     0.2449 C.2     
  16 C16            0.7714     2.2257     0.1297 C.2     
  17 C17           -5.3335    -1.4217    -0.5486 C.ar    
  18 C18           -4.4195    -4.0402    -0.3708 C.ar    
  19 C19           -1.6040    -4.5452    -0.0040 C.2     
  20 C20            1.3525     3.6155     0.1699 C.3     
  21 C21           -6.2222    -2.4811    -0.6338 C.ar    
  22 C22           -5.7649    -3.7837    -0.5460 C.ar    
  23 C23           -1.9746    -5.3839     1.1569 C.ar    
  24 C24            1.7283     4.0525    -1.2474 C.3     
  25 C25           -1.6045    -6.7303     1.1965 C.ar    
  26 C26           -2.6906    -4.8321     2.2200 C.ar    
  27 C27           -1.9537    -7.5069     2.2838 C.ar    
  28 C28           -3.0328    -5.6194     3.2999 C.ar    
  29 C29           -2.6684    -6.9539     3.3311 C.ar    
  30 H30           -3.2980     0.0964     0.5544 H       
  31 H31           -3.0793     0.0539    -1.1872 H       
  32 H32            0.4289    -3.4018     0.2221 H       
  33 H33            2.5486     1.1065     0.3803 H       
  34 H34           -5.6936    -0.4059    -0.6181 H       
  35 H35           -4.0656    -5.0582    -0.3020 H       
  36 H36            0.6151     4.3059     0.5795 H       
  37 H37            2.2425     3.6192     0.7992 H       
  38 H38           -7.2763    -2.2893    -0.7700 H       
  39 H39           -6.4638    -4.6043    -0.6139 H       
  40 H40            2.1486     5.0578    -1.2182 H       
  41 H41            2.4657     3.3621    -1.6569 H       
  42 H42            0.8383     4.0489    -1.8767 H       
  43 H43           -2.9759    -3.7907     2.1976 H       
  44 H44           -1.6685    -8.5480     2.3164 H       
  45 H45           -3.5866    -5.1930     4.1233 H       
  46 H46           -2.9394    -7.5654     4.1790 H       
@<TRIPOS>BOND
   1    1   25 1
   2    2   10 1
   3    2   16 1
   4    3   14 2
   5    4   19 2
   6    5    7 1
   7    5    8 1
   8    5   10 1
   9    6    8 1
  10    6   14 am
  11    6   32 1
  12    7    9 1
  13    7   30 1
  14    7   31 1
  15    8   11 2
  16    9   12 ar
  17    9   17 ar
  18   10   13 2
  19   11   12 1
  20   11   19 1
  21   12   18 ar
  22   13   14 1
  23   13   15 1
  24   15   16 2
  25   15   33 1
  26   16   20 1
  27   17   21 ar
  28   17   34 1
  29   18   22 ar
  30   18   35 1
  31   19   23 1
  32   20   24 1
  33   20   36 1
  34   20   37 1
  35   21   22 ar
  36   21   38 1
  37   22   39 1
  38   23   25 ar
  39   23   26 ar
  40   24   40 1
  41   24   41 1
  42   24   42 1
  43   25   27 ar
  44   26   28 ar
  45   26   43 1
  46   27   29 ar
  47   27   44 1
  48   28   29 ar
  49   28   45 1
  50   29   46 1

#	End of record

#	Name: 5553820
#	Creating user name:	landrgr1
#	Creation time:	28. 01. 2015 13:52

#	Modifying user name:	landrgr1
#	Modification time:	28. 01. 2015 13:52

#	Program:	corina 3.48 0006  22.01.2010

@<TRIPOS>MOLECULE
5553820
  52   54    0    0    0
SMALL
NO_CHARGES


@<TRIPOS>ATOM
   1 S1             3.6192     6.8551    -1.7983 S.2     
   2 N2            -1.5180     3.6773    -0.1104 N.ar    
   3 N3            -0.3377     5.6156     0.3922 N.ar    
   4 N4             0.7837     3.7446    -0.4512 N.pl3   
   5 N5             3.7712     6.8768     0.8533 N.am    
   6 N6             1.9779     5.7077    -0.0624 N.2     
   7 N7             3.0820     3.8876    -1.0023 N.pl3   
   8 C8            -2.6515     5.5786     0.7451 C.ar    
   9 C9            -5.0136     5.4829     1.0863 C.ar    
  10 C10           -2.6701     4.2408     0.2724 C.ar    
  11 C11           -5.0330     4.1692     0.6223 C.ar    
  12 C12           -3.8486     6.1863     1.1509 C.ar    
  13 C13           -3.8890     3.5486     0.2199 C.ar    
  14 C14           -1.4181     6.2543     0.7905 C.ar    
  15 C15           -6.3002     6.1354     1.5221 C.3     
  16 C16           -6.3408     3.4226     0.5650 C.3     
  17 C17           -0.3922     4.3600    -0.0461 C.ar    
  18 C18           -1.3355     7.6758     1.2838 C.3     
  19 C19            6.2379     9.2811    -0.4312 C.ar    
  20 C20            7.3354     8.9731     0.3513 C.ar    
  21 C21            4.9679     7.5803     0.6846 C.ar    
  22 C22            5.0545     8.5877    -0.2674 C.ar    
  23 C23            7.2525     7.9703     1.3002 C.ar    
  24 C24            6.0724     7.2734     1.4691 C.ar    
  25 C25            6.3311    10.3783    -1.4600 C.3     
  26 C26            8.6249     9.7316     0.1697 C.3     
  27 C27            1.9493     4.4609    -0.5005 C.2     
  28 C28            3.0828     6.4498    -0.2238 C.2     
  29 H29           -3.8468     7.2040     1.5125 H       
  30 H30           -3.9204     2.5300    -0.1377 H       
  31 H31           -6.4586     5.9523     2.5849 H       
  32 H32           -6.2418     7.2091     1.3432 H       
  33 H33           -7.1306     5.7170     0.9535 H       
  34 H34           -6.8085     3.5831    -0.4063 H       
  35 H35           -6.1578     2.3577     0.7087 H       
  36 H36           -7.0019     3.7870     1.3513 H       
  37 H37           -1.4669     8.3597     0.4453 H       
  38 H38           -2.1188     7.8506     2.0213 H       
  39 H39           -0.3610     7.8454     1.7417 H       
  40 H40            4.1975     8.8291    -0.8786 H       
  41 H41            8.1117     7.7320     1.9096 H       
  42 H42            6.0082     6.4907     2.2105 H       
  43 H43            0.7798     2.8069    -0.6993 H       
  44 H44            6.6620     9.9585    -2.4100 H       
  45 H45            5.3522    10.8403    -1.5882 H       
  46 H46            7.0466    11.1297    -1.1260 H       
  47 H47            8.6298    10.6021     0.8258 H       
  48 H48            9.4655     9.0841     0.4190 H       
  49 H49            8.7120    10.0574    -0.8668 H       
  50 H50            3.4366     6.6960     1.7457 H       
  51 H51            3.0426     3.0046    -1.4019 H       
  52 H52            3.9263     4.3632    -0.9592 H       
@<TRIPOS>BOND
   1    1   28 2
   2    2   10 ar
   3    2   17 ar
   4    3   14 ar
   5    3   17 ar
   6    4   17 1
   7    4   27 1
   8    4   43 1
   9    5   21 1
  10    5   28 am
  11    5   50 1
  12    6   27 2
  13    6   28 1
  14    7   27 1
  15    7   51 1
  16    7   52 1
  17    8   10 ar
  18    8   12 ar
  19    8   14 ar
  20    9   11 ar
  21    9   12 ar
  22    9   15 1
  23   10   13 ar
  24   11   13 ar
  25   11   16 1
  26   12   29 1
  27   13   30 1
  28   14   18 1
  29   15   31 1
  30   15   32 1
  31   15   33 1
  32   16   34 1
  33   16   35 1
  34   16   36 1
  35   18   37 1
  36   18   38 1
  37   18   39 1
  38   19   20 ar
  39   19   22 ar
  40   19   25 1
  41   20   23 ar
  42   20   26 1
  43   21   22 ar
  44   21   24 ar
  45   22   40 1
  46   23   24 ar
  47   23   41 1
  48   24   42 1
  49   25   44 1
  50   25   45 1
  51   25   46 1
  52   26   47 1
  53   26   48 1
  54   26   49 1

#	End of record

#	Name: 5552247
#	Creating user name:	landrgr1
#	Creation time:	28. 01. 2015 13:52

#	Modifying user name:	landrgr1
#	Modification time:	28. 01. 2015 13:52

#	Program:	corina 3.48 0006  22.01.2010

@<TRIPOS>MOLECULE
5552247
  50   51    0    0    0
SMALL
NO_CHARGES


@<TRIPOS>ATOM
   1 O1             0.2042    -3.1617     0.5484 O.2     
   2 O2             2.6415     0.7535     0.3677 O.2     
   3 O3             0.1585     0.9796     0.1666 O.3     
   4 N4             3.6710    -1.2074     0.4949 N.am    
   5 N5            -5.9673    -1.1739     0.9247 N.3     
   6 N6            -1.0945    -0.9659     0.5182 N.pl3   
   7 C7             3.7726    -5.3928     0.3323 C.3     
   8 C8             4.8725    -4.6879     1.1362 C.3     
   9 C9             2.4342    -4.7599     0.7054 C.3     
  10 C10            5.0037    -3.2601     0.6137 C.3     
  11 C11            2.5042    -3.2586     0.6019 C.2     
  12 C12            3.6578    -2.5767     0.5727 C.2     
  13 C13            1.2641    -2.5567     0.5338 C.2     
  14 C14            1.2893    -1.0928     0.4455 C.2     
  15 C15           -4.8138    -0.2785     0.7647 C.3     
  16 C16           -3.5275    -1.1061     0.7239 C.3     
  17 C17            2.5609    -0.4605     0.4333 C.2     
  18 C18           -2.3261    -0.1735     0.5573 C.3     
  19 C19            0.1061    -0.3480     0.3754 C.2     
  20 C20           -5.9388    -1.8404     2.2335 C.3     
  21 C21           -7.2290    -0.4467     0.7315 C.3     
  22 C22           -6.8951    -3.0346     2.2185 C.3     
  23 C23           -7.4453    -0.1883    -0.7609 C.3     
  24 H24            3.9562    -5.2641    -0.7344 H       
  25 H25            3.7593    -6.4545     0.5788 H       
  26 H26            4.6021    -4.6699     2.1920 H       
  27 H27            5.8177    -5.2151     1.0069 H       
  28 H28            1.6621    -5.1301     0.0309 H       
  29 H29            2.1790    -5.0375     1.7281 H       
  30 H30            5.6708    -2.6989     1.2680 H       
  31 H31            5.4246    -3.2834    -0.3914 H       
  32 H32            4.5295    -0.7559     0.4881 H       
  33 H33           -4.9149     0.2818    -0.1647 H       
  34 H34           -4.7730     0.4151     1.6046 H       
  35 H35           -3.4264    -1.6664     1.6534 H       
  36 H36           -3.5683    -1.7997    -0.1159 H       
  37 H37           -2.2854     0.5201     1.3971 H       
  38 H38           -2.4273     0.3869    -0.3721 H       
  39 H39           -4.9270    -2.1877     2.4424 H       
  40 H40           -6.2483    -1.1368     3.0063 H       
  41 H41           -8.0548    -1.0423     1.1206 H       
  42 H42           -7.1851     0.5043     1.2623 H       
  43 H43           -1.1368    -1.9320     0.5944 H       
  44 H44           -6.9386    -3.4778     3.2134 H       
  45 H45           -7.8903    -2.6996     1.9263 H       
  46 H46           -6.5378    -3.7774     1.5053 H       
  47 H47           -6.5789     0.3322    -1.1689 H       
  48 H48           -7.5756    -1.1384    -1.2790 H       
  49 H49           -8.3356     0.4254    -0.8980 H       
  50 H50            0.1331     1.5483     0.9483 H       
@<TRIPOS>BOND
   1    1   13 2
   2    2   17 2
   3    3   19 1
   4    3   50 1
   5    4   12 1
   6    4   17 am
   7    4   32 1
   8    5   15 1
   9    5   20 1
  10    5   21 1
  11    6   18 1
  12    6   19 1
  13    6   43 1
  14    7    8 1
  15    7    9 1
  16    7   24 1
  17    7   25 1
  18    8   10 1
  19    8   26 1
  20    8   27 1
  21    9   11 1
  22    9   28 1
  23    9   29 1
  24   10   12 1
  25   10   30 1
  26   10   31 1
  27   11   12 2
  28   11   13 1
  29   13   14 1
  30   14   17 1
  31   14   19 2
  32   15   16 1
  33   15   33 1
  34   15   34 1
  35   16   18 1
  36   16   35 1
  37   16   36 1
  38   18   37 1
  39   18   38 1
  40   20   22 1
  41   20   39 1
  42   20   40 1
  43   21   23 1
  44   21   41 1
  45   21   42 1
  46   22   44 1
  47   22   45 1
  48   22   46 1
  49   23   47 1
  50   23   48 1
  51   23   49 1

#	End of record

#	Name: 5552211
#	Creating user name:	landrgr1
#	Creation time:	28. 01. 2015 13:52

#	Modifying user name:	landrgr1
#	Modification time:	28. 01. 2015 13:52

#	Program:	corina 3.48 0006  22.01.2010

@<TRIPOS>MOLECULE
5552211
  44   46    0    0    0
SMALL
NO_CHARGES


@<TRIPOS>ATOM
   1 O1             0.2548    -1.9413     8.5549 O.2     
   2 O2             0.4768     1.9327    10.6861 O.2     
   3 O3             0.1324     2.1334     6.2769 O.2     
   4 O4             0.1515     1.3372     0.0043 O.3     
   5 O5             0.2755     1.1979     2.5014 O.2     
   6 N6             0.3737    -0.0009     9.6531 N.am    
   7 N7             0.3065     2.0595     8.5017 N.am    
   8 N8             0.1513    -0.0019     4.8734 N.pl3   
   9 N9            -0.0735    -0.6649     3.6598 N.am    
  10 C10            0.4672    -0.6948    10.9400 C.3     
  11 C11            1.9152    -0.9548    11.2665 C.ar    
  12 C12            0.2705    -0.7253     8.5198 C.2     
  13 C13            0.1779    -0.0039     7.2380 C.2     
  14 C14            0.3872     1.3392     9.6293 C.2     
  15 C15            0.2053     1.4686     7.2933 C.2     
  16 C16            2.6415    -0.0198    11.9801 C.ar    
  17 C17            2.5157    -2.1307    10.8572 C.ar    
  18 C18            0.0704    -0.6789     6.0363 C.2     
  19 C19            3.9698    -0.2583    12.2795 C.ar    
  20 C20            3.8439    -2.3692    11.1567 C.ar    
  21 C21            4.5717    -1.4319    11.8657 C.ar    
  22 C22           -0.2294    -0.6862     1.2191 C.ar    
  23 C23            0.0074     0.0119     2.4971 C.2     
  24 C24           -0.1463     0.0138     0.0075 C.ar    
  25 C25           -0.5320    -2.0497     1.2092 C.ar    
  26 C26           -0.3703    -0.6526    -1.1877 C.ar    
  27 C27           -0.7521    -2.6961     0.0119 C.ar    
  28 C28           -0.6743    -1.9997    -1.1828 C.ar    
  29 H29            0.0245    -0.0752    11.7198 H       
  30 H30           -0.0679    -1.6426    10.8814 H       
  31 H31            0.3215     3.0279     8.5560 H       
  32 H32            2.1713     0.8971    12.3034 H       
  33 H33            1.9469    -2.8633    10.3038 H       
  34 H34           -0.0784    -1.7486     6.0292 H       
  35 H35            4.5374     0.4725    12.8364 H       
  36 H36            4.3129    -3.2882    10.8372 H       
  37 H37            5.6095    -1.6181    12.0994 H       
  38 H38            0.3653     0.9442     4.8768 H       
  39 H39           -0.2875    -1.6110     3.6564 H       
  40 H40           -0.5935    -2.5968     2.1384 H       
  41 H41           -0.3073    -0.1173    -2.1236 H       
  42 H42           -0.9857    -3.7505     0.0053 H       
  43 H43           -0.8483    -2.5142    -2.1163 H       
  44 H44            1.0981     1.5272    -0.0495 H       
@<TRIPOS>BOND
   1    1   12 2
   2    2   14 2
   3    3   15 2
   4    4   24 1
   5    4   44 1
   6    5   23 2
   7    6   10 1
   8    6   12 am
   9    6   14 am
  10    7   14 am
  11    7   15 am
  12    7   31 1
  13    8    9 1
  14    8   18 1
  15    8   38 1
  16    9   23 am
  17    9   39 1
  18   10   11 1
  19   10   29 1
  20   10   30 1
  21   11   16 ar
  22   11   17 ar
  23   12   13 1
  24   13   15 1
  25   13   18 2
  26   16   19 ar
  27   16   32 1
  28   17   20 ar
  29   17   33 1
  30   18   34 1
  31   19   21 ar
  32   19   35 1
  33   20   21 ar
  34   20   36 1
  35   21   37 1
  36   22   23 1
  37   22   24 ar
  38   22   25 ar
  39   24   26 ar
  40   25   27 ar
  41   25   40 1
  42   26   28 ar
  43   26   41 1
  44   27   28 ar
  45   27   42 1
  46   28   43 1

#	End of record

#	Name: 5529236
#	Creating user name:	landrgr1
#	Creation time:	28. 01. 2015 13:52

#	Modifying user name:	landrgr1
#	Modification time:	28. 01. 2015 13:52

#	Program:	corina 3.48 0006  22.01.2010

@<TRIPOS>MOLECULE
5529236
  37   38    0    0    0
SMALL
NO_CHARGES


@<TRIPOS>ATOM
   1 Cl1            2.9941    -2.5736     1.1837 Cl      
   2 Cl2            0.7714    -4.4552     0.0668 Cl      
   3 O3             2.1308     1.7535    -0.4160 O.2     
   4 O4             3.1677     3.7333    -0.5414 O.2     
   5 O5             8.2906    10.1583    -1.3084 O.2     
   6 N6            -0.0169     1.3955     0.0097 N.am    
   7 N7             2.2571     5.7375    -0.2653 N.am    
   8 N8             3.4852     6.3734    -0.4896 N.pl3   
   9 C9             0.1706     0.0085     0.0235 C.ar    
  10 C10            0.8559     3.7087    -0.0672 C.3     
  11 C11            1.0369     2.2162    -0.1706 C.2     
  12 C12            1.3445    -0.5294     0.5335 C.ar    
  13 C13           -0.8199    -0.8322    -0.4676 C.ar    
  14 C14            2.1768     4.3928    -0.3084 C.2     
  15 C15            4.7919     8.3466    -0.6708 C.2     
  16 C16            1.5268    -1.8996     0.5463 C.ar    
  17 C17           -0.6333    -2.2004    -0.4527 C.ar    
  18 C18            0.5397    -2.7348     0.0506 C.ar    
  19 C19            3.5650     7.7112    -0.4467 C.2     
  20 C20            4.8774     9.7557    -0.6258 C.2     
  21 C21            5.9477     7.5794    -0.9364 C.2     
  22 C22            6.0679    10.3694    -0.8429 C.2     
  23 C23            7.1360     8.1977    -1.1528 C.2     
  24 C24            7.2175     9.6026    -1.1128 C.2     
  25 H25            0.1337     4.0397    -0.8134 H       
  26 H26            0.4918     3.9624     0.9284 H       
  27 H27           -0.9058     1.7659     0.1259 H       
  28 H28            2.1146     0.1221     0.9194 H       
  29 H29           -1.7358    -0.4161    -0.8607 H       
  30 H30           -1.4036    -2.8541    -0.8346 H       
  31 H31            1.4647     6.2649    -0.0790 H       
  32 H32            2.6827     8.2985    -0.2392 H       
  33 H33            4.2776     5.8460    -0.6759 H       
  34 H34            3.9957    10.3443    -0.4192 H       
  35 H35            5.8857     6.5016    -0.9668 H       
  36 H36            6.1337    11.4468    -0.8090 H       
  37 H37            8.0201     7.6115    -1.3556 H       
@<TRIPOS>BOND
   1    1   16 1
   2    2   18 1
   3    3   11 2
   4    4   14 2
   5    5   24 2
   6    6    9 1
   7    6   11 am
   8    6   27 1
   9    7    8 1
  10    7   14 am
  11    7   31 1
  12    8   19 1
  13    8   33 1
  14    9   12 ar
  15    9   13 ar
  16   10   11 1
  17   10   14 1
  18   10   25 1
  19   10   26 1
  20   12   16 ar
  21   12   28 1
  22   13   17 ar
  23   13   29 1
  24   15   19 2
  25   15   20 1
  26   15   21 1
  27   16   18 ar
  28   17   18 ar
  29   17   30 1
  30   19   32 1
  31   20   22 2
  32   20   34 1
  33   21   23 2
  34   21   35 1
  35   22   24 1
  36   22   36 1
  37   23   24 1
  38   23   37 1

#	End of record

#	Name: 5524861
#	Creating user name:	landrgr1
#	Creation time:	28. 01. 2015 13:52

#	Modifying user name:	landrgr1
#	Modification time:	28. 01. 2015 13:52

#	Program:	corina 3.48 0006  22.01.2010

@<TRIPOS>MOLECULE
5524861
  24   25    0    0    0
SMALL
NO_CHARGES


@<TRIPOS>ATOM
   1 Cl1            0.0732    -4.5109    -0.0302 Cl      
   2 O2            -0.0164     1.3556     0.0095 O.3     
   3 O3             0.0891    -1.7761     6.4363 O.2     
   4 N4             0.0262    -0.0192     2.4214 N.pl3   
   5 N5             0.0651     0.4552     6.9895 N.am    
   6 N6             0.0426     1.6516     6.2732 N.2     
   7 C7             0.0231    -0.7087     1.2040 C.ar    
   8 C8             0.0495    -0.0204     4.7893 C.2     
   9 C9             0.0021    -0.0041     0.0020 C.ar    
  10 C10            0.0465    -0.7032     3.5839 C.2     
  11 C11            0.0467    -2.0963     1.1903 C.ar    
  12 C12           -0.0004    -0.6918    -1.2006 C.ar    
  13 C13            0.0436    -2.7752    -0.0143 C.ar    
  14 C14            0.0703    -0.5927     6.1408 C.2     
  15 C15            0.0174    -2.0741    -1.2072 C.ar    
  16 C16            0.0327     1.4355     4.9938 C.2     
  17 H17            0.0137     0.9507     2.4294 H       
  18 H18            0.0604    -1.7830     3.5749 H       
  19 H19            0.0675    -2.6455     2.1200 H       
  20 H20           -0.0167    -0.1478    -2.1335 H       
  21 H21            0.0151    -2.6082    -2.1459 H       
  22 H22            0.0157     2.1884     4.2197 H       
  23 H23            0.0792     0.3869     7.9570 H       
  24 H24            0.8616     1.7609     0.0033 H       
@<TRIPOS>BOND
   1    1   13 1
   2    2    9 1
   3    2   24 1
   4    3   14 2
   5    4    7 1
   6    4   10 1
   7    4   17 1
   8    5    6 1
   9    5   14 am
  10    5   23 1
  11    6   16 2
  12    7    9 ar
  13    7   11 ar
  14    8   10 2
  15    8   14 1
  16    8   16 1
  17    9   12 ar
  18   10   18 1
  19   11   13 ar
  20   11   19 1
  21   12   15 ar
  22   12   20 1
  23   13   15 ar
  24   15   21 1
  25   16   22 1

#	End of record

#	Name: 5524089
#	Creating user name:	landrgr1
#	Creation time:	28. 01. 2015 13:52

#	Modifying user name:	landrgr1
#	Modification time:	28. 01. 2015 13:52

#	Program:	corina 3.48 0006  22.01.2010

@<TRIPOS>MOLECULE
5524089
  35   36    0    0    0
SMALL
NO_CHARGES


@<TRIPOS>ATOM
   1 O1             2.1348     1.7456    -0.4156 O.2     
   2 N2            -0.0169     1.3951     0.0097 N.am    
   3 N3             0.8812     3.5480    -0.0789 N.am    
   4 C4             0.1667     0.0080     0.0253 C.ar    
   5 C5             0.5298    -2.7348     0.0561 C.ar    
   6 C6             1.3391    -0.5330     0.5366 C.ar    
   7 C7            -0.8254    -0.8308    -0.4652 C.ar    
   8 C8             1.5172    -1.9026     0.5505 C.ar    
   9 C9            -0.6411    -2.1995    -0.4485 C.ar    
  10 C10            0.7276    -4.2287     0.0728 C.3     
  11 C11            2.9678     6.6080    -0.3707 C.ar    
  12 C12            1.0393     2.2127    -0.1704 C.2     
  13 C13            1.8115     5.7129    -0.1735 C.2     
  14 C14            2.8076     7.9921    -0.2765 C.ar    
  15 C15            4.2287     6.0747    -0.6468 C.ar    
  16 C16            1.9682     4.3894    -0.2643 C.2     
  17 C17            3.8930     8.8230    -0.4621 C.ar    
  18 C18            5.3053     6.9173    -0.8301 C.ar    
  19 C19            5.1382     8.2880    -0.7410 C.ar    
  20 H20            2.1108     0.1165     0.9226 H       
  21 H21           -1.7403    -0.4133    -0.8591 H       
  22 H22            2.4306    -2.3237     0.9439 H       
  23 H23           -1.4103    -2.8521    -0.8342 H       
  24 H24           -0.9049     1.7681     0.1246 H       
  25 H25            0.3470    -4.6351     1.0099 H       
  26 H26            0.1888    -4.6759    -0.7625 H       
  27 H27            1.7899    -4.4556    -0.0168 H       
  28 H28            0.8384     6.1277     0.0443 H       
  29 H29            1.8362     8.4110    -0.0593 H       
  30 H30            4.3606     5.0050    -0.7163 H       
  31 H31            0.0072     3.9206     0.1167 H       
  32 H32            2.9412     3.9745    -0.4820 H       
  33 H33            3.7705     9.8936    -0.3899 H       
  34 H34            6.2810     6.5063    -1.0433 H       
  35 H35            5.9845     8.9432    -0.8858 H       
@<TRIPOS>BOND
   1    1   12 2
   2    2    4 1
   3    2   12 am
   4    2   24 1
   5    3   12 am
   6    3   16 1
   7    3   31 1
   8    4    6 ar
   9    4    7 ar
  10    5    8 ar
  11    5    9 ar
  12    5   10 1
  13    6    8 ar
  14    6   20 1
  15    7    9 ar
  16    7   21 1
  17    8   22 1
  18    9   23 1
  19   10   25 1
  20   10   26 1
  21   10   27 1
  22   11   13 1
  23   11   14 ar
  24   11   15 ar
  25   13   16 2
  26   13   28 1
  27   14   17 ar
  28   14   29 1
  29   15   18 ar
  30   15   30 1
  31   16   32 1
  32   17   19 ar
  33   17   33 1
  34   18   19 ar
  35   18   34 1
  36   19   35 1

#	End of record

#	Name: 5524047
#	Creating user name:	landrgr1
#	Creation time:	28. 01. 2015 13:52

#	Modifying user name:	landrgr1
#	Modification time:	28. 01. 2015 13:52

#	Program:	corina 3.48 0006  22.01.2010

@<TRIPOS>MOLECULE
5524047
  31   31    0    0    0
SMALL
NO_CHARGES


@<TRIPOS>ATOM
   1 O1            -0.0046     1.3426     0.1124 O.3     
   2 N2            -3.5411    -0.7721     0.3713 N.pl3   
   3 N3             1.2661    -3.2544    -0.0904 N.1     
   4 N4             3.4383     0.6101     0.2718 N.1     
   5 C5            -4.7550    -0.0932     0.5042 C.ar    
   6 C6            -7.1592     1.2512     0.7672 C.ar    
   7 C7            -5.9424    -0.8056     0.6169 C.ar    
   8 C8            -4.7769     1.2957     0.5296 C.ar    
   9 C9            -7.1405    -0.1314     0.7480 C.ar    
  10 C10           -5.9785     1.9634     0.6610 C.ar    
  11 C11           -8.4685     1.9834     0.9104 C.3     
  12 C12           -2.3735    -0.0694     0.2605 C.2     
  13 C13           -1.1973    -0.7272     0.1318 C.2     
  14 C14            0.0120    -0.0090     0.1155 C.2     
  15 C15            1.2325    -0.6938     0.1026 C.2     
  16 C16           -0.5146     1.9824    -1.0591 C.3     
  17 C17            1.2512    -2.1217    -0.0051 C.1     
  18 C18            2.4625     0.0333     0.1969 C.1     
  19 H19           -5.9286    -1.8854     0.6016 H       
  20 H20           -3.8552     1.8525     0.4471 H       
  21 H21           -8.0643    -0.6846     0.8315 H       
  22 H22           -5.9967     3.0432     0.6763 H       
  23 H23           -3.5267    -1.7419     0.3577 H       
  24 H24           -8.6795     2.1472     1.9671 H       
  25 H25           -8.4053     2.9441     0.3993 H       
  26 H26           -9.2677     1.3886     0.4682 H       
  27 H27           -2.3895     1.0103     0.2757 H       
  28 H28           -1.1875    -1.8034     0.0416 H       
  29 H29            0.0305     1.6273    -1.9336 H       
  30 H30           -1.5730     1.7467    -1.1703 H       
  31 H31           -0.3905     3.0614    -0.9671 H       
@<TRIPOS>BOND
   1    1   14 1
   2    1   16 1
   3    2    5 1
   4    2   12 1
   5    2   23 1
   6    3   17 3
   7    4   18 3
   8    5    7 ar
   9    5    8 ar
  10    6    9 ar
  11    6   10 ar
  12    6   11 1
  13    7    9 ar
  14    7   19 1
  15    8   10 ar
  16    8   20 1
  17    9   21 1
  18   10   22 1
  19   11   24 1
  20   11   25 1
  21   11   26 1
  22   12   13 2
  23   12   27 1
  24   13   14 1
  25   13   28 1
  26   14   15 2
  27   15   17 1
  28   15   18 1
  29   16   29 1
  30   16   30 1
  31   16   31 1

#	End of record

#	Name: 5523561
#	Creating user name:	landrgr1
#	Creation time:	28. 01. 2015 13:52

#	Modifying user name:	landrgr1
#	Modification time:	28. 01. 2015 13:52

#	Program:	corina 3.48 0006  22.01.2010

@<TRIPOS>MOLECULE
5523561
  33   33    0    0    0
SMALL
NO_CHARGES


@<TRIPOS>ATOM
   1 O1             1.3528     1.2663    -0.0303 O.3     
   2 N2             0.0473    -6.2003    -3.6348 N.pl3   
   3 N3             0.6047    -4.2105    -0.0459 N.pl3   
   4 N4            -0.0060    -9.5717    -4.6887 N.1     
   5 N5            -0.1697    -9.5879    -0.2438 N.1     
   6 C6             0.0790    -6.8981    -2.4504 C.2     
   7 C7             0.7938    -2.8243    -0.0419 C.ar    
   8 C8             0.1989    -6.2070    -1.2285 C.2     
   9 C9             0.3818    -4.8668    -1.2246 C.2     
  10 C10           -1.2377    -5.8186    -4.2260 C.3     
  11 C11            1.2985    -5.8384    -4.3054 C.3     
  12 C12            1.0202    -2.1572     1.1553 C.ar    
  13 C13            0.7604    -2.1149    -1.2357 C.ar    
  14 C14            1.2072    -0.7892     1.1581 C.ar    
  15 C15            0.9480    -0.7470    -1.2309 C.ar    
  16 C16            1.1690    -0.0809    -0.0341 C.ar    
  17 C17           -0.0081    -8.2983    -2.4587 C.2     
  18 C18           -0.0070    -9.0084    -3.7022 C.1     
  19 C19           -0.0983    -9.0174    -1.2236 C.1     
  20 H20            0.1449    -6.7473    -0.2949 H       
  21 H21            0.6317    -4.7061     0.7876 H       
  22 H22            0.3517    -4.3150    -2.1526 H       
  23 H23           -1.4900    -4.8027    -3.9221 H       
  24 H24           -1.1659    -5.8656    -5.3126 H       
  25 H25           -2.0131    -6.5036    -3.8831 H       
  26 H26            1.5385    -6.5903    -5.0572 H       
  27 H27            1.1850    -4.8669    -4.7866 H       
  28 H28            2.1029    -5.7886    -3.5716 H       
  29 H29            1.0501    -2.7084     2.0835 H       
  30 H30            0.5888    -2.6334    -2.1674 H       
  31 H31            1.3830    -0.2703     2.0889 H       
  32 H32            0.9225    -0.1954    -2.1590 H       
  33 H33            2.2758     1.5376    -0.1274 H       
@<TRIPOS>BOND
   1    1   16 1
   2    1   33 1
   3    2    6 1
   4    2   10 1
   5    2   11 1
   6    3    7 1
   7    3    9 1
   8    3   21 1
   9    4   18 3
  10    5   19 3
  11    6    8 1
  12    6   17 2
  13    7   12 ar
  14    7   13 ar
  15    8    9 2
  16    8   20 1
  17    9   22 1
  18   10   23 1
  19   10   24 1
  20   10   25 1
  21   11   26 1
  22   11   27 1
  23   11   28 1
  24   12   14 ar
  25   12   29 1
  26   13   15 ar
  27   13   30 1
  28   14   16 ar
  29   14   31 1
  30   15   16 ar
  31   15   32 1
  32   17   18 1
  33   17   19 1

#	End of record

#	Name: 5522154
#	Creating user name:	landrgr1
#	Creation time:	28. 01. 2015 13:52

#	Modifying user name:	landrgr1
#	Modification time:	28. 01. 2015 13:52

#	Program:	corina 3.48 0006  22.01.2010

@<TRIPOS>MOLECULE
5522154
  46   49    0    0    0
SMALL
NO_CHARGES


@<TRIPOS>ATOM
   1 Cl1           -6.9203    -3.5411     0.4594 Cl      
   2 O2            -0.4017     1.2876    -0.8698 O.3     
   3 O3             2.1386    -2.5627    -0.3228 O.2     
   4 O4            -0.4829     8.3326    -0.6858 O.2     
   5 O5            -0.4268     8.0723    -2.7785 O.2     
   6 N6             1.0742    -4.9687    -0.1945 N.pl3   
   7 N7             0.7082    -6.3031     0.0209 N.pl3   
   8 N8            -0.3324     7.6109    -1.6553 N.pl3   
   9 C9            -0.0657    -4.2117    -0.1747 C.2     
  10 C10           -1.1495    -5.0880     0.0557 C.2     
  11 C11           -0.1442    -2.8092    -0.3520 C.2     
  12 C12           -2.5787    -4.7045     0.1555 C.ar    
  13 C13           -0.6399    -6.3634     0.1710 C.2     
  14 C14            1.0394    -2.0293    -0.4185 C.2     
  15 C15           -1.3936    -2.1795    -0.4687 C.2     
  16 C16           -0.3059    -0.0553    -0.7001 C.2     
  17 C17            0.9384    -0.6451    -0.5939 C.2     
  18 C18           -1.4664    -0.8305    -0.6394 C.2     
  19 C19           -3.4723    -5.0688    -0.8503 C.ar    
  20 C20           -3.0339    -3.9836     1.2581 C.ar    
  21 C21            0.8221     2.0230    -0.9292 C.3     
  22 C22            0.5196     3.4871    -1.1194 C.ar    
  23 C23           -4.8012    -4.7099    -0.7524 C.ar    
  24 C24           -4.3648    -3.6297     1.3464 C.ar    
  25 C25            0.3497     4.3064    -0.0191 C.ar    
  26 C26            0.4177     4.0118    -2.3943 C.ar    
  27 C27           -5.2473    -3.9894     0.3422 C.ar    
  28 C28           -0.0348     6.1730    -1.4684 C.ar    
  29 C29            0.0723     5.6493    -0.1936 C.ar    
  30 C30            0.1403     5.3547    -2.5688 C.ar    
  31 H31            1.9763    -4.6388    -0.3297 H       
  32 H32           -1.2157    -7.2594     0.3499 H       
  33 H33            1.3161    -7.0581     0.0569 H       
  34 H34           -2.2990    -2.7665    -0.4236 H       
  35 H35            1.8310    -0.0394    -0.6459 H       
  36 H36           -2.4318    -0.3547    -0.7286 H       
  37 H37           -3.1253    -5.6306    -1.7049 H       
  38 H38           -2.3464    -3.7029     2.0422 H       
  39 H39            1.3750     1.8840    -0.0002 H       
  40 H40            1.4214     1.6641    -1.7659 H       
  41 H41           -5.4944    -4.9914    -1.5314 H       
  42 H42           -4.7186    -3.0714     2.2006 H       
  43 H43            0.4334     3.8972     0.9769 H       
  44 H44            0.5551     3.3726    -3.2539 H       
  45 H45           -0.0611     6.2893     0.6660 H       
  46 H46            0.0606     5.7647    -3.5647 H       
@<TRIPOS>BOND
   1    1   27 1
   2    2   16 1
   3    2   21 1
   4    3   14 2
   5    4    8 2
   6    5    8 2
   7    6    7 1
   8    6    9 1
   9    6   31 1
  10    7   13 1
  11    7   33 1
  12    8   28 1
  13    9   10 1
  14    9   11 2
  15   10   12 1
  16   10   13 2
  17   11   14 1
  18   11   15 1
  19   12   19 ar
  20   12   20 ar
  21   13   32 1
  22   14   17 1
  23   15   18 2
  24   15   34 1
  25   16   17 2
  26   16   18 1
  27   17   35 1
  28   18   36 1
  29   19   23 ar
  30   19   37 1
  31   20   24 ar
  32   20   38 1
  33   21   22 1
  34   21   39 1
  35   21   40 1
  36   22   25 ar
  37   22   26 ar
  38   23   27 ar
  39   23   41 1
  40   24   27 ar
  41   24   42 1
  42   25   29 ar
  43   25   43 1
  44   26   30 ar
  45   26   44 1
  46   28   29 ar
  47   28   30 ar
  48   29   45 1
  49   30   46 1

#	End of record

#	Name: 5520426
#	Creating user name:	landrgr1
#	Creation time:	28. 01. 2015 13:52

#	Modifying user name:	landrgr1
#	Modification time:	28. 01. 2015 13:52

#	Program:	corina 3.48 0006  22.01.2010

@<TRIPOS>MOLECULE
5520426
  53   55    0    0    0
SMALL
NO_CHARGES


@<TRIPOS>ATOM
   1 O1             3.5941    -6.3824     0.0023 O.2     
   2 O2             1.3202   -10.1669     0.3286 O.2     
   3 O3            -1.0728    -6.4465     0.1477 O.2     
   4 N4             0.0318     1.4018     0.1318 N.pl3   
   5 N5             2.4710    -8.3047     0.1723 N.am    
   6 N6             0.0684    -4.1653     0.0801 N.pl3   
   7 N7             0.1110    -8.3375     0.2410 N.am    
   8 C8             0.0410     0.0034     0.1188 C.ar    
   9 C9             1.2901     2.1436     0.0194 C.3     
  10 C10           -1.2366     2.1249     0.2516 C.3     
  11 C11            3.7184    -9.0726     0.1884 C.3     
  12 C12           -1.1521    -0.7000     0.2254 C.ar    
  13 C13            1.2427    -0.6822    -0.0064 C.ar    
  14 C14            0.0591    -2.7659     0.0927 C.ar    
  15 C15            1.2574    -6.2106     0.0614 C.2     
  16 C16            2.5259    -6.9603     0.0755 C.2     
  17 C17            4.1896    -9.2357     1.6106 C.ar    
  18 C18           -1.1431    -2.0803     0.2121 C.ar    
  19 C19            1.2517    -2.0624    -0.0196 C.ar    
  20 C20            1.5926     2.4143    -1.4558 C.3     
  21 C21           -1.5495     2.3642     1.7301 C.3     
  22 C22            1.3010    -8.9543     0.2487 C.2     
  23 C23            1.2354    -4.8308    -0.0358 C.2     
  24 C24            0.0134    -6.9949     0.1542 C.2     
  25 C25            3.7791   -10.3265     2.3539 C.ar    
  26 C26            5.0369    -8.2975     2.1699 C.ar    
  27 C27            4.2112   -10.4761     3.6584 C.ar    
  28 C28            5.4691    -8.4471     3.4744 C.ar    
  29 C29            5.0543    -9.5352     4.2194 C.ar    
  30 H30            1.2024     3.0906     0.5520 H       
  31 H31            2.0985     1.5558     0.4541 H       
  32 H32           -1.1589     3.0826    -0.2629 H       
  33 H33           -2.0352     1.5347    -0.1979 H       
  34 H34            3.5463   -10.0546    -0.2522 H       
  35 H35            4.4780    -8.5441    -0.3876 H       
  36 H36           -2.0867    -0.1670     0.3190 H       
  37 H37            2.1698    -0.1352    -0.0937 H       
  38 H38           -2.0707    -2.6272     0.2950 H       
  39 H39            2.1860    -2.5954    -0.1166 H       
  40 H40            1.6803     1.4673    -1.9884 H       
  41 H41            0.7842     3.0021    -1.8905 H       
  42 H42            2.5288     2.9663    -1.5394 H       
  43 H43           -1.6273     1.4064     2.2446 H       
  44 H44           -0.7510     2.9544     2.1796 H       
  45 H45           -2.4933     2.9022     1.8193 H       
  46 H46           -0.7647    -4.6565     0.1548 H       
  47 H47            2.1529    -4.2867    -0.2045 H       
  48 H48           -0.6985    -8.8687     0.2989 H       
  49 H49            3.1204   -11.0617     1.9156 H       
  50 H50            5.3614    -7.4478     1.5876 H       
  51 H51            3.8899   -11.3279     4.2394 H       
  52 H52            6.1313    -7.7143     3.9112 H       
  53 H53            5.3916    -9.6518     5.2387 H       
@<TRIPOS>BOND
   1    1   16 2
   2    2   22 2
   3    3   24 2
   4    4    8 1
   5    4    9 1
   6    4   10 1
   7    5   11 1
   8    5   16 am
   9    5   22 am
  10    6   14 1
  11    6   23 1
  12    6   46 1
  13    7   22 am
  14    7   24 am
  15    7   48 1
  16    8   12 ar
  17    8   13 ar
  18    9   20 1
  19    9   30 1
  20    9   31 1
  21   10   21 1
  22   10   32 1
  23   10   33 1
  24   11   17 1
  25   11   34 1
  26   11   35 1
  27   12   18 ar
  28   12   36 1
  29   13   19 ar
  30   13   37 1
  31   14   18 ar
  32   14   19 ar
  33   15   16 1
  34   15   23 2
  35   15   24 1
  36   17   25 ar
  37   17   26 ar
  38   18   38 1
  39   19   39 1
  40   20   40 1
  41   20   41 1
  42   20   42 1
  43   21   43 1
  44   21   44 1
  45   21   45 1
  46   23   47 1
  47   25   27 ar
  48   25   49 1
  49   26   28 ar
  50   26   50 1
  51   27   29 ar
  52   27   51 1
  53   28   29 ar
  54   28   52 1
  55   29   53 1

#	End of record

#	Name: 5512399
#	Creating user name:	landrgr1
#	Creation time:	28. 01. 2015 13:52

#	Modifying user name:	landrgr1
#	Modification time:	28. 01. 2015 13:52

#	Program:	corina 3.48 0006  22.01.2010

@<TRIPOS>MOLECULE
5512399
  33   34    0    0    0
SMALL
NO_CHARGES


@<TRIPOS>ATOM
   1 Br1            2.9316    -2.9210    -0.0305 Br      
   2 F2            -4.3994    -9.1701     1.3136 F       
   3 F3            -3.2795    -9.1014    -0.6764 F       
   4 F4            -5.5610    -9.2164    -0.6530 F       
   5 O5            -0.0164     1.3562     0.0095 O.3     
   6 O6            -2.2848    -0.1437     0.0231 O.2     
   7 N7            -2.2517    -4.2944    -0.0000 N.pl3   
   8 C8            -3.4232    -5.0552     0.0076 C.ar    
   9 C9            -4.5125    -7.1918     0.0069 C.ar    
  10 C10           -1.1507    -2.1927     0.0008 C.2     
  11 C11           -3.3525    -6.4430    -0.0010 C.ar    
  12 C12           -2.3219    -2.9532     0.0083 C.2     
  13 C13           -4.6617    -4.4262     0.0295 C.ar    
  14 C14           -5.7439    -6.5622     0.0239 C.ar    
  15 C15           -1.2089    -0.7266     0.0097 C.2     
  16 C16           -5.8180    -5.1815     0.0374 C.ar    
  17 C17            0.1171    -2.8188    -0.0093 C.2     
  18 C18            0.0021    -0.0041     0.0020 C.2     
  19 C19           -4.4367    -8.6969    -0.0024 C.3     
  20 C20            1.2465    -2.0631    -0.0165 C.2     
  21 C21            1.1917    -0.6707    -0.0134 C.2     
  22 C22            1.2479     2.0222     0.0010 C.3     
  23 H23           -2.3913    -6.9352    -0.0143 H       
  24 H24           -1.3875    -4.7348    -0.0113 H       
  25 H25           -3.2841    -2.4629     0.0209 H       
  26 H26           -4.7203    -3.3479     0.0407 H       
  27 H27           -6.6497    -7.1504     0.0305 H       
  28 H28           -6.7811    -4.6932     0.0545 H       
  29 H29            0.1878    -3.8964    -0.0112 H       
  30 H30            2.1126    -0.1065    -0.0195 H       
  31 H31            1.8003     1.7417    -0.8958 H       
  32 H32            1.0905     3.1007     0.0083 H       
  33 H33            1.8173     1.7321     0.8840 H       
@<TRIPOS>BOND
   1    1   20 1
   2    2   19 1
   3    3   19 1
   4    4   19 1
   5    5   18 1
   6    5   22 1
   7    6   15 2
   8    7    8 1
   9    7   12 1
  10    7   24 1
  11    8   11 ar
  12    8   13 ar
  13    9   11 ar
  14    9   14 ar
  15    9   19 1
  16   10   12 2
  17   10   15 1
  18   10   17 1
  19   11   23 1
  20   12   25 1
  21   13   16 ar
  22   13   26 1
  23   14   16 ar
  24   14   27 1
  25   15   18 1
  26   16   28 1
  27   17   20 2
  28   17   29 1
  29   18   21 2
  30   20   21 1
  31   21   30 1
  32   22   31 1
  33   22   32 1
  34   22   33 1

#	End of record

#	Name: 5508229
#	Creating user name:	landrgr1
#	Creation time:	28. 01. 2015 13:52

#	Modifying user name:	landrgr1
#	Modification time:	28. 01. 2015 13:52

#	Program:	corina 3.48 0006  22.01.2010

@<TRIPOS>MOLECULE
5508229
  44   46    0    0    0
SMALL
NO_CHARGES


@<TRIPOS>ATOM
   1 Br1           -8.4832    -1.7456    -3.0119 Br      
   2 O2            -0.2902     1.4481     2.5131 O.3     
   3 O3            -2.0410    -3.2835     0.2658 O.2     
   4 O4            -1.4362    -1.9447     2.4607 O.2     
   5 N5            -3.8970    -3.2566     1.4870 N.am    
   6 N6            -2.2082    -0.3142     1.1630 N.am    
   7 C7            -3.7613    -4.6121     1.8012 C.ar    
   8 C8            -3.0539    -1.1964     0.4851 C.2     
   9 C9            -3.4926    -7.2949     2.4231 C.ar    
  10 C10           -4.7292    -1.6525    -1.2386 C.ar    
  11 C11           -3.9576    -0.7201    -0.4023 C.2     
  12 C12           -2.9617    -2.6420     0.7361 C.2     
  13 C13           -4.1825    -5.0857     3.0372 C.ar    
  14 C14           -3.2101    -5.4893     0.8759 C.ar    
  15 C15           -4.0469    -6.4253     3.3444 C.ar    
  16 C16           -3.0774    -6.8277     1.1895 C.ar    
  17 C17           -6.0200    -1.3164    -1.6585 C.ar    
  18 C18           -4.1731    -2.8774    -1.6226 C.ar    
  19 C19           -3.3462    -8.7560     2.7618 C.3     
  20 C20           -1.3898    -0.7742     2.1300 C.2     
  21 C21           -0.4435     0.1353     2.7835 C.2     
  22 C22           -6.7372    -2.1966    -2.4428 C.ar    
  23 C23           -4.9022    -3.7461    -2.4065 C.ar    
  24 C24           -6.1815    -3.4094    -2.8137 C.ar    
  25 C25            0.4372    -0.1981     3.7726 C.2     
  26 C26            1.1401     0.9724     4.0984 C.2     
  27 C27            0.6639     1.9564     3.3040 C.2     
  28 H28           -4.1124     0.3446    -0.4965 H       
  29 H29           -4.6643    -2.7584     1.8095 H       
  30 H30           -4.6152    -4.4070     3.7573 H       
  31 H31           -2.8860    -5.1252    -0.0878 H       
  32 H32           -4.3702    -6.7933     4.3070 H       
  33 H33           -2.6445    -7.5094     0.4724 H       
  34 H34           -2.2103     0.6292     0.9376 H       
  35 H35           -6.4545    -0.3708    -1.3695 H       
  36 H36           -3.1749    -3.1417    -1.3061 H       
  37 H37           -4.2445    -9.2919     2.4550 H       
  38 H38           -2.4822    -9.1656     2.2385 H       
  39 H39           -3.2061    -8.8675     3.8370 H       
  40 H40           -4.4740    -4.6920    -2.7036 H       
  41 H41           -6.7477    -4.0945    -3.4274 H       
  42 H42            0.5673    -1.1732     4.2182 H       
  43 H43            1.9154     1.0686     4.8441 H       
  44 H44            0.9976     2.9835     3.3064 H       
@<TRIPOS>BOND
   1    1   22 1
   2    2   21 1
   3    2   27 1
   4    3   12 2
   5    4   20 2
   6    5    7 1
   7    5   12 am
   8    5   29 1
   9    6    8 1
  10    6   20 am
  11    6   34 1
  12    7   13 ar
  13    7   14 ar
  14    8   11 2
  15    8   12 1
  16    9   15 ar
  17    9   16 ar
  18    9   19 1
  19   10   11 1
  20   10   17 ar
  21   10   18 ar
  22   11   28 1
  23   13   15 ar
  24   13   30 1
  25   14   16 ar
  26   14   31 1
  27   15   32 1
  28   16   33 1
  29   17   22 ar
  30   17   35 1
  31   18   23 ar
  32   18   36 1
  33   19   37 1
  34   19   38 1
  35   19   39 1
  36   20   21 1
  37   21   25 2
  38   22   24 ar
  39   23   24 ar
  40   23   40 1
  41   24   41 1
  42   25   26 1
  43   25   42 1
  44   26   27 2
  45   26   43 1
  46   27   44 1

#	End of record

#	Name: 5505376
#	Creating user name:	landrgr1
#	Creation time:	28. 01. 2015 13:52

#	Modifying user name:	landrgr1
#	Modification time:	28. 01. 2015 13:52

#	Program:	corina 3.48 0006  22.01.2010

@<TRIPOS>MOLECULE
5505376
  47   50    0    0    0
SMALL
NO_CHARGES


@<TRIPOS>ATOM
   1 O1            -0.6363     1.2103    -1.0696 O.3     
   2 O2             2.0348    -2.5379    -0.4408 O.2     
   3 N3             1.0493    -4.9605    -0.1402 N.pl3   
   4 N4             0.7300    -6.2927     0.1509 N.pl3   
   5 N5            -4.4950    -3.9498     1.0423 N.pl3   
   6 N6            -4.7557    -4.6743    -0.1273 N.2     
   7 C7            -1.1616    -5.1304     0.1846 C.2     
   8 C8            -0.1128    -4.2367    -0.1213 C.2     
   9 C9            -0.6129    -6.3825     0.3457 C.2     
  10 C10           -2.6005    -4.7820     0.3102 C.2     
  11 C11           -0.2392    -2.8471    -0.3636 C.2     
  12 C12           -3.1627    -4.0270     1.2967 C.2     
  13 C13            0.9176    -2.0398    -0.5170 C.2     
  14 C14           -1.3721    -7.6404     0.6807 C.3     
  15 C15           -1.5099    -2.2581    -0.4587 C.2     
  16 C16            0.7695    -0.6695    -0.7556 C.2     
  17 C17           -3.6301    -5.1724    -0.5677 C.2     
  18 C18           -0.4947    -0.1194    -0.8385 C.2     
  19 C19           -1.6288    -0.9216    -0.6917 C.2     
  20 C20           -5.4417    -3.2607     1.8122 C.ar    
  21 C21            1.9860     0.2044    -0.9209 C.3     
  22 C22           -6.7776    -3.2584     1.4337 C.ar    
  23 C23           -5.0467    -2.5836     2.9582 C.ar    
  24 C24           -7.7083    -2.5783     2.1946 C.ar    
  25 C25           -5.9821    -1.9053     3.7149 C.ar    
  26 C26           -7.3109    -1.9002     3.3322 C.ar    
  27 C27           -1.2232     1.9912    -0.0267 C.3     
  28 H28            1.9366    -4.6118    -0.3191 H       
  29 H29            1.3606    -7.0278     0.2043 H       
  30 H30           -2.6438    -3.5730     2.1280 H       
  31 H31           -0.6774    -8.4779     0.7451 H       
  32 H32           -1.8794    -7.5148     1.6372 H       
  33 H33           -2.1087    -7.8385    -0.0979 H       
  34 H34           -2.3953    -2.8664    -0.3472 H       
  35 H35           -3.5103    -5.7792    -1.4530 H       
  36 H36           -2.6104    -0.4772    -0.7640 H       
  37 H37            2.8825    -0.4155    -0.9128 H       
  38 H38            1.9229     0.7397    -1.8683 H       
  39 H39            2.0325     0.9212    -0.1010 H       
  40 H40           -7.0886    -3.7876     0.5451 H       
  41 H41           -4.0090    -2.5875     3.2578 H       
  42 H42           -8.7475    -2.5759     1.9005 H       
  43 H43           -5.6754    -1.3784     4.6064 H       
  44 H44           -8.0404    -1.3688     3.9254 H       
  45 H45           -2.1915     1.5691     0.2422 H       
  46 H46           -0.5688     1.9836     0.8450 H       
  47 H47           -1.3568     3.0164    -0.3717 H       
@<TRIPOS>BOND
   1    1   18 1
   2    1   27 1
   3    2   13 2
   4    3    4 1
   5    3    8 1
   6    3   28 1
   7    4    9 1
   8    4   29 1
   9    5    6 1
  10    5   12 1
  11    5   20 1
  12    6   17 2
  13    7    8 1
  14    7    9 2
  15    7   10 1
  16    8   11 2
  17    9   14 1
  18   10   12 2
  19   10   17 1
  20   11   13 1
  21   11   15 1
  22   12   30 1
  23   13   16 1
  24   14   31 1
  25   14   32 1
  26   14   33 1
  27   15   19 2
  28   15   34 1
  29   16   18 2
  30   16   21 1
  31   17   35 1
  32   18   19 1
  33   19   36 1
  34   20   22 ar
  35   20   23 ar
  36   21   37 1
  37   21   38 1
  38   21   39 1
  39   22   24 ar
  40   22   40 1
  41   23   25 ar
  42   23   41 1
  43   24   26 ar
  44   24   42 1
  45   25   26 ar
  46   25   43 1
  47   26   44 1
  48   27   45 1
  49   27   46 1
  50   27   47 1

#	End of record

#	Name: 5475190
#	Creating user name:	landrgr1
#	Creation time:	28. 01. 2015 13:52

#	Modifying user name:	landrgr1
#	Modification time:	28. 01. 2015 13:52

#	Program:	corina 3.48 0006  22.01.2010

@<TRIPOS>MOLECULE
5475190
  33   34    0    0    0
SMALL
NO_CHARGES


@<TRIPOS>ATOM
   1 O1             2.2021     1.5564    -0.0106 O.2     
   2 N2            -0.0178     1.4608     0.0101 N.am    
   3 N3            -1.4871    -2.8635     1.0958 N.pl3   
   4 N4            -1.3332    -4.1102    -0.6589 N.2     
   5 C5            -1.4333    -0.5336     0.0129 C.3     
   6 C6             0.0021    -0.0041     0.0020 C.3     
   7 C7            -1.4129    -2.0405     0.0046 C.2     
   8 C8            -1.3176    -2.8361    -1.0778 C.2     
   9 C9             1.1401     2.1505     0.0027 C.2     
  10 C10           -1.4346    -4.1343     0.6419 C.2     
  11 C11            2.2585     5.7764     0.0115 C.ar    
  12 C12            1.1202     3.6146     0.0108 C.2     
  13 C13            2.2784     4.3045     0.0034 C.2     
  14 C14            3.4577     6.4955     0.0039 C.ar    
  15 C15            1.0401     6.4626     0.0210 C.ar    
  16 C16            3.4307     7.8742     0.0111 C.ar    
  17 C17            1.0297     7.8415     0.0280 C.ar    
  18 C18            2.2209     8.5461     0.0258 C.ar    
  19 H19           -1.9435    -0.1821     0.9097 H       
  20 H20           -1.9605    -0.1726    -0.8702 H       
  21 H21            0.5123    -0.3556    -0.8948 H       
  22 H22            0.5293    -0.3651     0.8851 H       
  23 H23           -0.8643     1.9343     0.0167 H       
  24 H24           -1.5597    -2.5858     2.0223 H       
  25 H25           -1.2418    -2.5061    -2.1033 H       
  26 H26           -1.4708    -5.0234     1.2541 H       
  27 H27            0.1777     4.1418     0.0226 H       
  28 H28            3.2209     3.7773    -0.0084 H       
  29 H29            4.4026     5.9725    -0.0072 H       
  30 H30            0.1098     5.9141     0.0224 H       
  31 H31            4.3561     8.4310     0.0056 H       
  32 H32            0.0895     8.3730     0.0354 H       
  33 H33            2.2062     9.6260     0.0314 H       
@<TRIPOS>BOND
   1    1    9 2
   2    2    6 1
   3    2    9 am
   4    2   23 1
   5    3    7 1
   6    3   10 1
   7    3   24 1
   8    4    8 1
   9    4   10 2
  10    5    6 1
  11    5    7 1
  12    5   19 1
  13    5   20 1
  14    6   21 1
  15    6   22 1
  16    7    8 2
  17    8   25 1
  18    9   12 1
  19   10   26 1
  20   11   13 1
  21   11   14 ar
  22   11   15 ar
  23   12   13 2
  24   12   27 1
  25   13   28 1
  26   14   16 ar
  27   14   29 1
  28   15   17 ar
  29   15   30 1
  30   16   18 ar
  31   16   31 1
  32   17   18 ar
  33   17   32 1
  34   18   33 1

#	End of record

#	Name: 5465946
#	Creating user name:	landrgr1
#	Creation time:	28. 01. 2015 13:52

#	Modifying user name:	landrgr1
#	Modification time:	28. 01. 2015 13:52

#	Program:	corina 3.48 0006  22.01.2010

@<TRIPOS>MOLECULE
5465946
  36   38    0    0    0
SMALL
NO_CHARGES


@<TRIPOS>ATOM
   1 S1            -1.2015    -2.2227     1.2118 S.2     
   2 O2             0.5133     4.1761    -0.9564 O.2     
   3 N3             0.0256     1.2824    -0.1707 N.pl3   
   4 N4             2.6869     3.6122    -0.6643 N.2     
   5 N5             0.0028    -0.0122     0.3644 N.am    
   6 N6            -2.3281    -0.0239     0.2367 N.am    
   7 C7             2.4866     1.4303    -0.0606 C.2     
   8 C8             1.1835     1.9378    -0.2838 C.2     
   9 C9             3.3881     2.4985    -0.3069 C.2     
  10 C10            2.9738     0.1755     0.3242 C.2     
  11 C11            1.3874     3.3757    -0.6772 C.2     
  12 C12            4.7541     2.2736    -0.1601 C.2     
  13 C13           -3.5431    -0.7063     0.3585 C.ar    
  14 C14           -5.0199    -2.1083     1.6249 C.ar    
  15 C15            4.3345    -0.0176     0.4606 C.2     
  16 C16            5.2163     1.0240     0.2206 C.2     
  17 C17           -3.8195    -1.4358     1.5078 C.ar    
  18 C18           -4.4779    -0.6513    -0.6668 C.ar    
  19 C19           -5.9464    -2.0561     0.5994 C.ar    
  20 C20           -1.1736    -0.6407     0.5579 C.2     
  21 C21           -5.6768    -1.3263    -0.5434 C.ar    
  22 C22           -5.3206    -2.9000     2.8715 C.3     
  23 H23            2.2889    -0.6382     0.5119 H       
  24 H24           -0.7992     1.7011    -0.4626 H       
  25 H25            5.4549     3.0745    -0.3436 H       
  26 H26            4.7130    -0.9845     0.7577 H       
  27 H27           -3.0963    -1.4772     2.3088 H       
  28 H28            6.2780     0.8597     0.3317 H       
  29 H29            0.8337    -0.4561     0.5956 H       
  30 H30           -2.3164     0.8932    -0.0790 H       
  31 H31           -4.2680    -0.0810    -1.5597 H       
  32 H32           -6.8846    -2.5827     0.6936 H       
  33 H33           -6.4044    -1.2836    -1.3404 H       
  34 H34           -5.8181    -2.2580     3.5984 H       
  35 H35           -5.9711    -3.7381     2.6215 H       
  36 H36           -4.3899    -3.2765     3.2961 H       
@<TRIPOS>BOND
   1    1   20 2
   2    2   11 2
   3    3    5 1
   4    3    8 1
   5    3   24 1
   6    4    9 2
   7    4   11 1
   8    5   20 am
   9    5   29 1
  10    6   13 1
  11    6   20 am
  12    6   30 1
  13    7    8 2
  14    7    9 1
  15    7   10 1
  16    8   11 1
  17    9   12 1
  18   10   15 2
  19   10   23 1
  20   12   16 2
  21   12   25 1
  22   13   17 ar
  23   13   18 ar
  24   14   17 ar
  25   14   19 ar
  26   14   22 1
  27   15   16 1
  28   15   26 1
  29   16   28 1
  30   17   27 1
  31   18   21 ar
  32   18   31 1
  33   19   21 ar
  34   19   32 1
  35   21   33 1
  36   22   34 1
  37   22   35 1
  38   22   36 1

#	End of record

#	Name: 5461618
#	Creating user name:	landrgr1
#	Creation time:	28. 01. 2015 13:52

#	Modifying user name:	landrgr1
#	Modification time:	28. 01. 2015 13:52

#	Program:	corina 3.48 0006  22.01.2010

@<TRIPOS>MOLECULE
5461618
  60   62    0    0    0
SMALL
NO_CHARGES


@<TRIPOS>ATOM
   1 O1            -4.4768    -2.9985     0.4424 O.2     
   2 O2            -0.1985     1.4531    -0.4917 O.3     
   3 O3             0.9557    -0.4385    -0.6746 O.2     
   4 O4            -2.0808   -10.1679    -4.4714 O.3     
   5 O5            -2.3408    -8.0813    -5.1509 O.2     
   6 N6            -2.3277    -2.7713     0.0246 N.am    
   7 N7            -3.7570    -0.9185     0.2569 N.am    
   8 C8            -2.6147    -0.0204     0.0175 C.3     
   9 C9            -2.1917    -4.2300     0.0313 C.3     
  10 C10           -1.2115    -2.0211    -0.2123 C.2     
  11 C11           -1.2696    -0.6720    -0.2317 C.2     
  12 C12           -2.2828    -4.7572    -1.4021 C.3     
  13 C13           -2.1408    -6.2806    -1.3951 C.3     
  14 C14           -3.5404    -2.2487     0.2457 C.2     
  15 C15           -2.9399     0.8359    -1.1792 C.ar    
  16 C16           -2.2320    -6.8079    -2.8285 C.3     
  17 C17            0.1067    -2.7098    -0.4554 C.3     
  18 C18           -0.1142     0.1063    -0.4770 C.2     
  19 C19           -2.0900    -8.3313    -2.8215 C.3     
  20 C20           -2.5942     2.1743    -1.1858 C.ar    
  21 C21           -3.5788     0.2817    -2.2726 C.ar    
  22 C22           -2.8925     2.9598    -2.2834 C.ar    
  23 C23           -3.8771     1.0671    -3.3702 C.ar    
  24 C24           -3.5361     2.4068    -3.3747 C.ar    
  25 C25           -2.1797    -8.8506    -4.2333 C.2     
  26 C26            1.0078     2.1759    -0.7457 C.3     
  27 C27            0.7211     3.6552    -0.7237 C.ar    
  28 C28            0.8204     4.3610     0.4607 C.ar    
  29 C29            0.3642     4.3074    -1.8891 C.ar    
  30 C30            0.5574     5.7179     0.4808 C.ar    
  31 C31            0.1013     5.6643    -1.8690 C.ar    
  32 C32            0.1955     6.3691    -0.6835 C.ar    
  33 H33           -2.5181     0.6378     0.8809 H       
  34 H34           -1.2267    -4.5030     0.4582 H       
  35 H35           -2.9907    -4.6666     0.6306 H       
  36 H36           -3.2479    -4.4842    -1.8290 H       
  37 H37           -1.4839    -4.3206    -2.0013 H       
  38 H38           -1.1758    -6.5536    -0.9682 H       
  39 H39           -2.9398    -6.7173    -0.7958 H       
  40 H40           -4.6433    -0.5611     0.4228 H       
  41 H41           -3.1970    -6.5349    -3.2554 H       
  42 H42           -1.4330    -6.3713    -3.4277 H       
  43 H43           -0.0482    -3.7881    -0.4930 H       
  44 H44            0.5252    -2.3695    -1.4026 H       
  45 H45            0.7967    -2.4699     0.3537 H       
  46 H46           -1.1249    -8.6043    -2.3946 H       
  47 H47           -2.8890    -8.7679    -2.2222 H       
  48 H48           -2.0913     2.6064    -0.3332 H       
  49 H49           -3.8446    -0.7651    -2.2693 H       
  50 H50           -2.6230     4.0056    -2.2883 H       
  51 H51           -4.3759     0.6340    -4.2246 H       
  52 H52           -3.7694     3.0205    -4.2322 H       
  53 H53            1.7431     1.9368     0.0226 H       
  54 H54            1.3999     1.8962    -1.7235 H       
  55 H55            1.1032     3.8522     1.3704 H       
  56 H56            0.2912     3.7569    -2.8154 H       
  57 H57           -2.1444   -10.4534    -5.3931 H       
  58 H58            0.6344     6.2692     1.4063 H       
  59 H59           -0.1772     6.1740    -2.7796 H       
  60 H60           -0.0104     7.4292    -0.6677 H       
@<TRIPOS>BOND
   1    1   14 2
   2    2   18 1
   3    2   26 1
   4    3   18 2
   5    4   25 1
   6    4   57 1
   7    5   25 2
   8    6    9 1
   9    6   10 1
  10    6   14 am
  11    7    8 1
  12    7   14 am
  13    7   40 1
  14    8   11 1
  15    8   15 1
  16    8   33 1
  17    9   12 1
  18    9   34 1
  19    9   35 1
  20   10   11 2
  21   10   17 1
  22   11   18 1
  23   12   13 1
  24   12   36 1
  25   12   37 1
  26   13   16 1
  27   13   38 1
  28   13   39 1
  29   15   20 ar
  30   15   21 ar
  31   16   19 1
  32   16   41 1
  33   16   42 1
  34   17   43 1
  35   17   44 1
  36   17   45 1
  37   19   25 1
  38   19   46 1
  39   19   47 1
  40   20   22 ar
  41   20   48 1
  42   21   23 ar
  43   21   49 1
  44   22   24 ar
  45   22   50 1
  46   23   24 ar
  47   23   51 1
  48   24   52 1
  49   26   27 1
  50   26   53 1
  51   26   54 1
  52   27   28 ar
  53   27   29 ar
  54   28   30 ar
  55   28   55 1
  56   29   31 ar
  57   29   56 1
  58   30   32 ar
  59   30   58 1
  60   31   32 ar
  61   31   59 1
  62   32   60 1

#	End of record

#	Name: 5461573
#	Creating user name:	landrgr1
#	Creation time:	28. 01. 2015 13:52

#	Modifying user name:	landrgr1
#	Modification time:	28. 01. 2015 13:52

#	Program:	corina 3.48 0006  22.01.2010

@<TRIPOS>MOLECULE
5461573
  41   42    0    0    0
SMALL
NO_CHARGES


@<TRIPOS>ATOM
   1 S1            -0.2712     1.8315     0.5644 S.3     
   2 O2            -4.4495     0.1221     1.1489 O.2     
   3 O3             0.7105    -1.5437    -1.9483 O.3     
   4 O4            -0.7912    -1.2192    -3.5555 O.2     
   5 O5            -7.6751     3.9330    -3.2133 O.3     
   6 O6            -5.5552     4.0825    -2.6075 O.2     
   7 N7            -3.7395    -0.2180    -0.9067 N.am    
   8 N8            -2.3350    -0.4878     0.9599 N.am    
   9 C9            -1.2296    -0.8609     0.0613 C.3     
  10 C10           -1.5268    -0.8720    -1.4245 C.2     
  11 C11           -2.7783    -0.5513    -1.8176 C.2     
  12 C12           -5.0759     0.1189    -1.4036 C.3     
  13 C13           -3.5307    -0.1871     0.4155 C.2     
  14 C14           -5.1125     1.5939    -1.8085 C.3     
  15 C15           -0.0946     0.1022     0.2962 C.2     
  16 C16           -3.1198    -0.5618    -3.2854 C.3     
  17 C17           -6.5081     1.9458    -2.3274 C.3     
  18 C18           -0.5300    -1.2170    -2.3671 C.2     
  19 C19            1.1977    -0.2263     0.3319 C.2     
  20 C20            2.0619     0.8302     0.5625 C.2     
  21 C21            1.4714     2.0166     0.7142 C.2     
  22 C22           -6.5442     3.3987    -2.7262 C.2     
  23 C23            1.6671    -1.8814    -2.9547 C.3     
  24 H24           -0.8861    -1.8554     0.3461 H       
  25 H25           -5.3087    -0.5013    -2.2691 H       
  26 H26           -5.8111    -0.0609    -0.6193 H       
  27 H27           -2.2066    -0.4627     1.9211 H       
  28 H28           -4.8796     2.2142    -0.9429 H       
  29 H29           -4.3772     1.7738    -2.5927 H       
  30 H30           -4.1363    -0.1936    -3.4245 H       
  31 H31           -2.4238     0.0804    -3.8250 H       
  32 H32           -3.0465    -1.5797    -3.6682 H       
  33 H33           -6.7410     1.3256    -3.1929 H       
  34 H34           -7.2434     1.7660    -1.5431 H       
  35 H35            1.5436    -1.2397     0.1917 H       
  36 H36            3.1331     0.7034     0.6160 H       
  37 H37            1.9848     2.9483     0.9002 H       
  38 H38            1.7990    -1.0353    -3.6291 H       
  39 H39            2.6200    -2.1227    -2.4839 H       
  40 H40            1.3119    -2.7437    -3.5189 H       
  41 H41           -7.6497     4.8689    -3.4553 H       
@<TRIPOS>BOND
   1    1   15 1
   2    1   21 1
   3    2   13 2
   4    3   18 1
   5    3   23 1
   6    4   18 2
   7    5   22 1
   8    5   41 1
   9    6   22 2
  10    7   11 1
  11    7   12 1
  12    7   13 am
  13    8    9 1
  14    8   13 am
  15    8   27 1
  16    9   10 1
  17    9   15 1
  18    9   24 1
  19   10   11 2
  20   10   18 1
  21   11   16 1
  22   12   14 1
  23   12   25 1
  24   12   26 1
  25   14   17 1
  26   14   28 1
  27   14   29 1
  28   15   19 2
  29   16   30 1
  30   16   31 1
  31   16   32 1
  32   17   22 1
  33   17   33 1
  34   17   34 1
  35   19   20 1
  36   19   35 1
  37   20   21 2
  38   20   36 1
  39   21   37 1
  40   23   38 1
  41   23   39 1
  42   23   40 1

#	End of record

#	Name: 5461476
#	Creating user name:	landrgr1
#	Creation time:	28. 01. 2015 13:52

#	Modifying user name:	landrgr1
#	Modification time:	28. 01. 2015 13:52

#	Program:	corina 3.48 0006  22.01.2010

@<TRIPOS>MOLECULE
5461476
  64   68    0    0    0
SMALL
NO_CHARGES


@<TRIPOS>ATOM
   1 O1             0.1391     1.2540     0.0062 O.3     
   2 O2             2.4568     5.6724    -0.6903 O.2     
   3 O3            -2.3562    -4.2184    -2.2194 O.3     
   4 O4            -4.0239    -4.1630    -0.7574 O.2     
   5 N5             1.9062     3.6425    -1.3962 N.am    
   6 N6            -2.4336    -2.6339    -0.5090 N.am    
   7 N7             2.2060     0.6622    -0.1181 N.2     
   8 C8             2.4527     5.4120    -3.0359 C.3     
   9 C9             3.6101     4.6895    -3.6759 C.ar    
  10 C10            2.7319     6.8929    -3.0199 C.ar    
  11 C11            1.1773     5.1421    -3.8368 C.3     
  12 C12            2.2724     4.9195    -1.6231 C.2     
  13 C13            4.8434     4.6708    -3.0518 C.ar    
  14 C14            1.8636     7.7530    -2.3741 C.ar    
  15 C15            3.4369     4.0407    -4.8842 C.ar    
  16 C16            3.8593     7.3904    -3.6462 C.ar    
  17 C17            1.8376     3.1329    -0.0244 C.3     
  18 C18           -1.0011    -1.0013    -0.0038 C.2     
  19 C19           -2.1138    -0.9666     0.9629 C.ar    
  20 C20           -2.9801    -2.0098     0.5990 C.ar    
  21 C21            0.1658    -0.0961    -0.0360 C.2     
  22 C22           -1.2549    -2.0229    -0.8574 C.2     
  23 C23            1.4068     1.6889    -0.0459 C.2     
  24 C24            5.9050     4.0081    -3.6389 C.ar    
  25 C25            2.1196     9.1113    -2.3595 C.ar    
  26 C26            4.4985     3.3780    -5.4712 C.ar    
  27 C27            4.1154     8.7488    -3.6316 C.ar    
  28 C28           -2.4156    -0.1595     2.0574 C.ar    
  29 C29            5.7332     3.3637    -4.8498 C.ar    
  30 C30            3.2443     9.6095    -2.9903 C.ar    
  31 C31           -4.1360    -2.2272     1.3389 C.ar    
  32 C32            1.4720    -0.4614    -0.1143 C.2     
  33 C33           -3.5667    -0.3906     2.7789 C.ar    
  34 C34           -4.4228    -1.4210     2.4199 C.ar    
  35 C35           -2.9759    -3.6893    -1.1481 C.2     
  36 C36           -2.9977    -5.3538    -2.8579 C.3     
  37 C37           -2.1529    -5.8144    -4.0475 C.3     
  38 H38            0.9754     4.0710    -3.8483 H       
  39 H39            0.3402     5.6647    -3.3739 H       
  40 H40            1.3077     5.4983    -4.8586 H       
  41 H41            1.6881     3.0608    -2.1411 H       
  42 H42            4.9776     5.1742    -2.1058 H       
  43 H43            0.9849     7.3638    -1.8812 H       
  44 H44            2.4721     4.0513    -5.3694 H       
  45 H45            4.5402     6.7179    -4.1467 H       
  46 H46            2.8195     3.2121     0.4422 H       
  47 H47            1.1163     3.7188     0.5452 H       
  48 H48           -0.6253    -2.3122    -1.6858 H       
  49 H49            6.8688     3.9940    -3.1517 H       
  50 H50            1.4409     9.7834    -1.8555 H       
  51 H51            4.3631     2.8708    -6.4151 H       
  52 H52            4.9964     9.1375    -4.1206 H       
  53 H53           -1.7508     0.6437     2.3389 H       
  54 H54            6.5627     2.8463    -5.3086 H       
  55 H55            3.4442    10.6708    -2.9791 H       
  56 H56           -4.8093    -3.0268     1.0672 H       
  57 H57            1.8506    -1.4716    -0.1644 H       
  58 H58           -3.8032     0.2335     3.6280 H       
  59 H59           -5.3222    -1.5933     2.9923 H       
  60 H60           -3.0904    -6.1694    -2.1407 H       
  61 H61           -3.9883    -5.0625    -3.2069 H       
  62 H62           -2.6344    -6.6667    -4.5268 H       
  63 H63           -2.0601    -4.9988    -4.7647 H       
  64 H64           -1.1622    -6.1057    -3.6985 H       
@<TRIPOS>BOND
   1    1   21 1
   2    1   23 1
   3    2   12 2
   4    3   35 1
   5    3   36 1
   6    4   35 2
   7    5   12 am
   8    5   17 1
   9    5   41 1
  10    6   20 1
  11    6   22 1
  12    6   35 am
  13    7   23 2
  14    7   32 1
  15    8    9 1
  16    8   10 1
  17    8   11 1
  18    8   12 1
  19    9   13 ar
  20    9   15 ar
  21   10   14 ar
  22   10   16 ar
  23   11   38 1
  24   11   39 1
  25   11   40 1
  26   13   24 ar
  27   13   42 1
  28   14   25 ar
  29   14   43 1
  30   15   26 ar
  31   15   44 1
  32   16   27 ar
  33   16   45 1
  34   17   23 1
  35   17   46 1
  36   17   47 1
  37   18   19 1
  38   18   21 1
  39   18   22 2
  40   19   20 ar
  41   19   28 ar
  42   20   31 ar
  43   21   32 2
  44   22   48 1
  45   24   29 ar
  46   24   49 1
  47   25   30 ar
  48   25   50 1
  49   26   29 ar
  50   26   51 1
  51   27   30 ar
  52   27   52 1
  53   28   33 ar
  54   28   53 1
  55   29   54 1
  56   30   55 1
  57   31   34 ar
  58   31   56 1
  59   32   57 1
  60   33   34 ar
  61   33   58 1
  62   34   59 1
  63   36   37 1
  64   36   60 1
  65   36   61 1
  66   37   62 1
  67   37   63 1
  68   37   64 1

#	End of record

#	Name: 5461301
#	Creating user name:	landrgr1
#	Creation time:	28. 01. 2015 13:52

#	Modifying user name:	landrgr1
#	Modification time:	28. 01. 2015 13:52

#	Program:	corina 3.48 0006  22.01.2010

@<TRIPOS>MOLECULE
5461301
  54   57    0    0    0
SMALL
NO_CHARGES


@<TRIPOS>ATOM
   1 P1             0.0761     1.4680    -0.0174 P.3     
   2 O2             0.1088    -0.0037     0.1360 O.2     
   3 N3             1.6464     2.0494    -0.1870 N.3     
   4 C4             3.2392     0.2615    -0.7005 C.3     
   5 C5             4.0581    -0.5754    -1.6854 C.3     
   6 C6             4.7537     0.4568    -0.7956 C.3     
   7 C7             2.3473     1.3616    -1.2795 C.3     
   8 C8             2.6945    -0.4436     0.5433 C.3     
   9 C9             4.2665    -2.0311    -1.3560 C.2     
  10 C10            3.1967     2.3520    -2.0335 C.ar    
  11 C11            3.8374    -2.9566    -2.1779 C.2     
  12 C12            3.2775     2.2851    -3.4119 C.ar    
  13 C13            3.8906     3.3310    -1.3472 C.ar    
  14 C14           -0.8913     1.9012    -1.4894 C.ar    
  15 C15           -0.6890     2.2119     1.4495 C.ar    
  16 C16            4.0567     3.1936    -4.1035 C.ar    
  17 C17            4.6698     4.2395    -2.0388 C.ar    
  18 C18            4.7548     4.1693    -3.4168 C.ar    
  19 C19           -1.3796     0.9046    -2.3136 C.ar    
  20 C20           -2.0647     2.3192     1.5323 C.ar    
  21 C21           -1.1450     3.2278    -1.7840 C.ar    
  22 C22            0.1034     2.6665     2.4870 C.ar    
  23 C23           -2.1168     1.2347    -3.4354 C.ar    
  24 C24           -2.6477     2.8861     2.6501 C.ar    
  25 C25           -1.8823     3.5579    -2.9058 C.ar    
  26 C26           -0.4796     3.2334     3.6048 C.ar    
  27 C27           -2.3661     2.5615    -3.7328 C.ar    
  28 C28           -1.8551     3.3454     3.6853 C.ar    
  29 H29            3.9615    -0.3423    -2.7457 H       
  30 H30            5.1147     1.3690    -1.2706 H       
  31 H31            5.3620     0.0829     0.0279 H       
  32 H32            1.6176     0.9186    -1.9573 H       
  33 H33            3.5238    -0.8445     1.1261 H       
  34 H34            2.1355     0.2692     1.1495 H       
  35 H35            2.0362    -1.2579     0.2404 H       
  36 H36            4.7696    -2.3115    -0.4424 H       
  37 H37            1.6488     3.0484    -0.3282 H       
  38 H38            3.9867    -3.9998    -1.9419 H       
  39 H39            3.3343    -2.6763    -3.0916 H       
  40 H40            2.7321     1.5228    -3.9484 H       
  41 H41            3.8238     3.3863    -0.2707 H       
  42 H42            4.1204     3.1409    -5.1803 H       
  43 H43            5.2117     5.0046    -1.5027 H       
  44 H44            5.3638     4.8789    -3.9571 H       
  45 H45           -1.1849    -0.1320    -2.0812 H       
  46 H46           -2.6839     1.9604     0.7235 H       
  47 H47           -0.7676     4.0062    -1.1376 H       
  48 H48            1.1780     2.5783     2.4244 H       
  49 H49           -2.4977     0.4561    -4.0796 H       
  50 H50           -3.7225     2.9706     2.7145 H       
  51 H51           -2.0808     4.5943    -3.1357 H       
  52 H52            0.1394     3.5882     4.4156 H       
  53 H53           -2.9418     2.8194    -4.6094 H       
  54 H54           -2.3106     3.7887     4.5585 H       
@<TRIPOS>BOND
   1    1    2 2
   2    1    3 1
   3    1   14 1
   4    1   15 1
   5    3    7 1
   6    3   37 1
   7    4    5 1
   8    4    6 1
   9    4    7 1
  10    4    8 1
  11    5    6 1
  12    5    9 1
  13    5   29 1
  14    6   30 1
  15    6   31 1
  16    7   10 1
  17    7   32 1
  18    8   33 1
  19    8   34 1
  20    8   35 1
  21    9   11 2
  22    9   36 1
  23   10   12 ar
  24   10   13 ar
  25   11   38 1
  26   11   39 1
  27   12   16 ar
  28   12   40 1
  29   13   17 ar
  30   13   41 1
  31   14   19 ar
  32   14   21 ar
  33   15   20 ar
  34   15   22 ar
  35   16   18 ar
  36   16   42 1
  37   17   18 ar
  38   17   43 1
  39   18   44 1
  40   19   23 ar
  41   19   45 1
  42   20   24 ar
  43   20   46 1
  44   21   25 ar
  45   21   47 1
  46   22   26 ar
  47   22   48 1
  48   23   27 ar
  49   23   49 1
  50   24   28 ar
  51   24   50 1
  52   25   27 ar
  53   25   51 1
  54   26   28 ar
  55   26   52 1
  56   27   53 1
  57   28   54 1

#	End of record

#	Name: 5459735
#	Creating user name:	landrgr1
#	Creation time:	28. 01. 2015 13:52

#	Modifying user name:	landrgr1
#	Modification time:	28. 01. 2015 13:52

#	Program:	corina 3.48 0006  22.01.2010

@<TRIPOS>MOLECULE
5459735
  47   48    0    0    0
SMALL
NO_CHARGES


@<TRIPOS>ATOM
   1 O1            -4.1046    -1.1483    -0.6862 O.2     
   2 O2            -1.2355     0.0938    -3.3876 O.2     
   3 O3            -0.3565     1.5322     0.4418 O.3     
   4 N4            -3.2554     1.0112    -3.3762 N.am    
   5 N5            -2.2200    -0.0541    -1.1023 N.am    
   6 C6            -4.0151    -0.1091    -2.8032 C.3     
   7 C7            -4.2312     2.0954    -3.5574 C.3     
   8 C8            -3.9490    -1.3167    -3.7404 C.3     
   9 C9            -5.4419     0.3503    -2.6588 C.2     
  10 C10           -5.5623     1.5788    -3.0790 C.2     
  11 C11           -3.4509    -0.4750    -1.4546 C.2     
  12 C12           -3.8167     3.3130    -2.7287 C.3     
  13 C13           -1.9400     1.0401    -3.6685 C.2     
  14 C14           -4.7306    -2.4588    -3.1439 C.ar    
  15 C15           -1.3448     2.2484    -4.3444 C.3     
  16 C16           -6.0751    -2.6010    -3.4316 C.ar    
  17 C17           -4.1016    -3.3675    -2.3135 C.ar    
  18 C18           -1.6242    -0.5056     0.1576 C.3     
  19 C19           -6.7920    -3.6486    -2.8844 C.ar    
  20 C20           -4.8185    -4.4151    -1.7663 C.ar    
  21 C21           -0.2342     0.1141     0.3153 C.3     
  22 C22           -6.1643    -4.5543    -2.0498 C.ar    
  23 C23            0.8912     2.2118     0.5951 C.3     
  24 H24           -4.2949     2.3651    -4.6115 H       
  25 H25           -4.3759    -1.0501    -4.7072 H       
  26 H26           -2.9097    -1.6175    -3.8726 H       
  27 H27           -6.2482    -0.2504    -2.2645 H       
  28 H28           -6.4828     2.1436    -3.0834 H       
  29 H29           -2.8057     3.6129    -3.0043 H       
  30 H30           -4.5052     4.1356    -2.9223 H       
  31 H31           -3.8441     3.0579    -1.6694 H       
  32 H32           -1.7286     0.5478    -1.6830 H       
  33 H33           -0.2999     2.0522    -4.5849 H       
  34 H34           -1.8951     2.4598    -5.2612 H       
  35 H35           -1.4088     3.1070    -3.6760 H       
  36 H36           -6.5656    -1.8934    -4.0836 H       
  37 H37           -3.0500    -3.2591    -2.0925 H       
  38 H38           -2.2564    -0.1963     0.9899 H       
  39 H39           -1.5389    -1.5922     0.1503 H       
  40 H40            0.3703    -0.1218    -0.5604 H       
  41 H41            0.2448    -0.2902     1.2071 H       
  42 H42           -7.8427    -3.7593    -3.1086 H       
  43 H43           -4.3270    -5.1253    -1.1178 H       
  44 H44           -6.7244    -5.3726    -1.6220 H       
  45 H45            1.3935     1.8510     1.4927 H       
  46 H46            1.5191     2.0194    -0.2749 H       
  47 H47            0.7127     3.2834     0.6845 H       
@<TRIPOS>BOND
   1    1   11 2
   2    2   13 2
   3    3   21 1
   4    3   23 1
   5    4    6 1
   6    4    7 1
   7    4   13 am
   8    5   11 am
   9    5   18 1
  10    5   32 1
  11    6    8 1
  12    6    9 1
  13    6   11 1
  14    7   10 1
  15    7   12 1
  16    7   24 1
  17    8   14 1
  18    8   25 1
  19    8   26 1
  20    9   10 2
  21    9   27 1
  22   10   28 1
  23   12   29 1
  24   12   30 1
  25   12   31 1
  26   13   15 1
  27   14   16 ar
  28   14   17 ar
  29   15   33 1
  30   15   34 1
  31   15   35 1
  32   16   19 ar
  33   16   36 1
  34   17   20 ar
  35   17   37 1
  36   18   21 1
  37   18   38 1
  38   18   39 1
  39   19   22 ar
  40   19   42 1
  41   20   22 ar
  42   20   43 1
  43   21   40 1
  44   21   41 1
  45   22   44 1
  46   23   45 1
  47   23   46 1
  48   23   47 1

#	End of record

#	Name: 5459714
#	Creating user name:	landrgr1
#	Creation time:	28. 01. 2015 13:52

#	Modifying user name:	landrgr1
#	Modification time:	28. 01. 2015 13:52

#	Program:	corina 3.48 0006  22.01.2010

@<TRIPOS>MOLECULE
5459714
  57   60    0    0    0
SMALL
NO_CHARGES


@<TRIPOS>ATOM
   1 O1             0.6082    -0.7193    -2.2669 O.2     
   2 O2            -2.3522     1.3052    -0.2094 O.2     
   3 N3            -0.2139     1.5765     0.3158 N.am    
   4 N4            -0.9268     0.8815    -2.2120 N.am    
   5 N5            -2.8610     1.4989    -7.6778 N.pl3   
   6 C6             0.3053     0.2835    -0.1522 C.3     
   7 C7             0.9591     2.3189     0.7990 C.3     
   8 C8             1.7946     0.2966     0.0705 C.2     
   9 C9             2.1589     1.4309     0.6005 C.2     
  10 C10            1.1270     3.6090    -0.0062 C.3     
  11 C11           -0.3312    -0.8541     0.6488 C.3     
  12 C12            0.0074     0.1117    -1.6194 C.2     
  13 C13           -1.4948     1.9954     0.2998 C.2     
  14 C14            2.2874     4.3973     0.5443 C.ar    
  15 C15           -1.3057     0.6318    -3.6049 C.3     
  16 C16           -1.8616     3.3215     0.9146 C.3     
  17 C17           -2.3767     1.6383    -4.0304 C.3     
  18 C18            3.5402     4.2733    -0.0267 C.ar    
  19 C19            2.0978     5.2488     1.6167 C.ar    
  20 C20           -2.7665     1.3814    -5.4633 C.2     
  21 C21           -3.7623     0.4165    -5.9358 C.ar    
  22 C22           -3.7811     0.5325    -7.3379 C.ar    
  23 C23           -2.2668     1.9931    -6.5486 C.2     
  24 C24            4.6046     4.9964     0.4782 C.ar    
  25 C25            3.1623     5.9719     2.1216 C.ar    
  26 C26            4.4162     5.8438     1.5540 C.ar    
  27 C27           -4.6042    -0.4985    -5.3014 C.ar    
  28 C28           -4.6428    -0.2713    -8.0767 C.ar    
  29 C29           -5.4431    -1.2785    -6.0467 C.ar    
  30 C30           -5.4648    -1.1684    -7.4301 C.ar    
  31 H31            0.8407     2.5518     1.8572 H       
  32 H32            2.4636    -0.5154    -0.1734 H       
  33 H33            3.1735     1.6950     0.8595 H       
  34 H34            1.3178     3.3631    -1.0508 H       
  35 H35            0.2165     4.2039     0.0666 H       
  36 H36           -1.4127    -0.8315     0.5155 H       
  37 H37            0.0585    -1.8090     0.2963 H       
  38 H38           -0.0927    -0.7322     1.7054 H       
  39 H39           -1.3482     1.6009    -1.7162 H       
  40 H40           -0.4301     0.7408    -4.2448 H       
  41 H41           -1.7004    -0.3799    -3.6983 H       
  42 H42           -2.9443     3.4454     0.8920 H       
  43 H43           -1.5139     3.3519     1.9472 H       
  44 H44           -1.3920     4.1265     0.3493 H       
  45 H45           -3.2524     1.5293    -3.3905 H       
  46 H46           -1.9821     2.6500    -3.9370 H       
  47 H47            3.6874     3.6112    -0.8672 H       
  48 H48            1.1181     5.3493     2.0598 H       
  49 H49           -1.5081     2.7615    -6.5330 H       
  50 H50            5.5835     4.8989     0.0326 H       
  51 H51            3.0141     6.6373     2.9593 H       
  52 H52           -2.6609     1.7839    -8.5831 H       
  53 H53            5.2479     6.4085     1.9487 H       
  54 H54           -4.5920    -0.5904    -4.2253 H       
  55 H55           -4.6678    -0.1924    -9.1535 H       
  56 H56           -6.0943    -1.9862    -5.5554 H       
  57 H57           -6.1335    -1.7914    -8.0054 H       
@<TRIPOS>BOND
   1    1   12 2
   2    2   13 2
   3    3    6 1
   4    3    7 1
   5    3   13 am
   6    4   12 am
   7    4   15 1
   8    4   39 1
   9    5   22 1
  10    5   23 1
  11    5   52 1
  12    6    8 1
  13    6   11 1
  14    6   12 1
  15    7    9 1
  16    7   10 1
  17    7   31 1
  18    8    9 2
  19    8   32 1
  20    9   33 1
  21   10   14 1
  22   10   34 1
  23   10   35 1
  24   11   36 1
  25   11   37 1
  26   11   38 1
  27   13   16 1
  28   14   18 ar
  29   14   19 ar
  30   15   17 1
  31   15   40 1
  32   15   41 1
  33   16   42 1
  34   16   43 1
  35   16   44 1
  36   17   20 1
  37   17   45 1
  38   17   46 1
  39   18   24 ar
  40   18   47 1
  41   19   25 ar
  42   19   48 1
  43   20   21 1
  44   20   23 2
  45   21   22 ar
  46   21   27 ar
  47   22   28 ar
  48   23   49 1
  49   24   26 ar
  50   24   50 1
  51   25   26 ar
  52   25   51 1
  53   26   53 1
  54   27   29 ar
  55   27   54 1
  56   28   30 ar
  57   28   55 1
  58   29   30 ar
  59   29   56 1
  60   30   57 1

#	End of record

#	Name: 5459665
#	Creating user name:	landrgr1
#	Creation time:	28. 01. 2015 13:52

#	Modifying user name:	landrgr1
#	Modification time:	28. 01. 2015 13:52

#	Program:	corina 3.48 0006  22.01.2010

@<TRIPOS>MOLECULE
5459665
  60   63    0    0    0
SMALL
NO_CHARGES


@<TRIPOS>ATOM
   1 O1            -0.8497    -2.9328     0.8621 O.2     
   2 O2            -2.1328     0.4789     0.6991 O.2     
   3 N3             0.0645     0.4278     1.0175 N.am    
   4 N4            -0.4488    -1.7612     2.7029 N.am    
   5 N5            -3.3541    -4.3869     7.0235 N.pl3   
   6 C6             0.3401    -0.9248     0.5127 C.3     
   7 C7            -0.1353    -1.0470    -0.9364 C.3     
   8 C8             0.4776     0.0795    -1.7709 C.3     
   9 C9             1.8304    -1.1294     0.5824 C.2     
  10 C10            1.3760     0.9897     1.3708 C.3     
  11 C11           -0.3623    -1.9455     1.3706 C.2     
  12 C12            2.4076    -0.0624     1.0605 C.2     
  13 C13           -1.1369     1.0285     1.1276 C.2     
  14 C14            1.9841    -0.1497    -1.9088 C.3     
  15 C15           -0.1653     0.0936    -3.1591 C.3     
  16 C16           -1.1316    -2.7534     3.5368 C.3     
  17 C17           -1.2436     2.3561     1.7695 C.ar    
  18 C18           -1.0880    -2.3070     4.9996 C.3     
  19 C19           -1.7904    -3.3276     5.8575 C.2     
  20 C20           -1.2041    -4.5487     6.4153 C.ar    
  21 C21           -2.4980     2.9123     2.0251 C.ar    
  22 C22           -0.0904     3.0560     2.1279 C.ar    
  23 C23           -3.0716    -3.2899     6.2560 C.2     
  24 C24           -2.2329    -5.1776     7.1406 C.ar    
  25 C25            0.0631    -5.1312     6.3567 C.ar    
  26 C26           -2.5905     4.1512     2.6248 C.ar    
  27 C27           -0.1970     4.2942     2.7270 C.ar    
  28 C28           -1.9715    -6.3782     7.7923 C.ar    
  29 C29           -1.4434     4.8424     2.9724 C.ar    
  30 C30            0.2982    -6.3109     7.0052 C.ar    
  31 C31           -0.7136    -6.9359     7.7207 C.ar    
  32 H32            0.1764    -2.0099    -1.3411 H       
  33 H33           -1.2223    -0.9736    -0.9696 H       
  34 H34            0.2992     1.0352    -1.2781 H       
  35 H35            2.3460    -2.0290     0.2805 H       
  36 H36            1.5683     1.8842     0.7782 H       
  37 H37            1.4016     1.2327     2.4330 H       
  38 H38            3.4710     0.0503     1.2120 H       
  39 H39            2.1705    -1.1906    -2.1734 H       
  40 H40            2.3805     0.5001    -2.6890 H       
  41 H41            2.4744     0.0780    -0.9624 H       
  42 H42           -1.2385     0.2569    -3.0609 H       
  43 H43            0.2713     0.8961    -3.7536 H       
  44 H44            0.0131    -0.8621    -3.6520 H       
  45 H45           -0.0589    -0.9716     3.1096 H       
  46 H46           -2.1692    -2.8457     3.2159 H       
  47 H47           -0.6331    -3.7175     3.4362 H       
  48 H48           -0.0504    -2.2147     5.3206 H       
  49 H49           -1.5865    -1.3429     5.1002 H       
  50 H50           -3.3941     2.3741     1.7536 H       
  51 H51            0.8831     2.6292     1.9369 H       
  52 H52           -3.7755    -2.5094     6.0074 H       
  53 H53           -4.2148    -4.5772     7.4283 H       
  54 H54            0.8551    -4.6510     5.8012 H       
  55 H55           -3.5605     4.5828     2.8231 H       
  56 H56            0.6945     4.8368     3.0048 H       
  57 H57           -2.7518    -6.8714     8.3528 H       
  58 H58           -1.5213     5.8121     3.4413 H       
  59 H59            1.2788    -6.7611     6.9596 H       
  60 H60           -0.5125    -7.8681     8.2277 H       
@<TRIPOS>BOND
   1    1   11 2
   2    2   13 2
   3    3    6 1
   4    3   10 1
   5    3   13 am
   6    4   11 am
   7    4   16 1
   8    4   45 1
   9    5   23 1
  10    5   24 1
  11    5   53 1
  12    6    7 1
  13    6    9 1
  14    6   11 1
  15    7    8 1
  16    7   32 1
  17    7   33 1
  18    8   14 1
  19    8   15 1
  20    8   34 1
  21    9   12 2
  22    9   35 1
  23   10   12 1
  24   10   36 1
  25   10   37 1
  26   12   38 1
  27   13   17 1
  28   14   39 1
  29   14   40 1
  30   14   41 1
  31   15   42 1
  32   15   43 1
  33   15   44 1
  34   16   18 1
  35   16   46 1
  36   16   47 1
  37   17   21 ar
  38   17   22 ar
  39   18   19 1
  40   18   48 1
  41   18   49 1
  42   19   20 1
  43   19   23 2
  44   20   24 ar
  45   20   25 ar
  46   21   26 ar
  47   21   50 1
  48   22   27 ar
  49   22   51 1
  50   23   52 1
  51   24   28 ar
  52   25   30 ar
  53   25   54 1
  54   26   29 ar
  55   26   55 1
  56   27   29 ar
  57   27   56 1
  58   28   31 ar
  59   28   57 1
  60   29   58 1
  61   30   31 ar
  62   30   59 1
  63   31   60 1

#	End of record

#	Name: 5459614
#	Creating user name:	landrgr1
#	Creation time:	28. 01. 2015 13:52

#	Modifying user name:	landrgr1
#	Modification time:	28. 01. 2015 13:52

#	Program:	corina 3.48 0006  22.01.2010

@<TRIPOS>MOLECULE
5459614
  70   73    0    0    0
SMALL
NO_CHARGES


@<TRIPOS>ATOM
   1 O1            -4.1179    -2.6179     1.3168 O.2     
   2 O2             0.4161     1.1413    -0.7573 O.3     
   3 O3             1.1500    -0.8980    -1.2536 O.2     
   4 O4            -3.8993   -10.2281    -3.5079 O.3     
   5 O5            -4.0384    -8.1516    -4.2511 O.2     
   6 N6            -2.1150    -2.7142     0.4091 N.am    
   7 N7            -3.1967    -0.6697     0.8324 N.am    
   8 C8            -2.0351     0.0474     0.2800 C.3     
   9 C9            -0.8821    -0.7976    -0.2225 C.2     
  10 C10           -2.1722    -4.1762     0.4842 C.3     
  11 C11           -0.9970    -2.1396    -0.1247 C.2     
  12 C12           -2.6665    -4.7365    -0.8509 C.3     
  13 C13           -2.5165     0.8974    -0.8675 C.ar    
  14 C14           -3.1639    -2.0166     0.8628 C.2     
  15 C15           -2.7262    -6.2633    -0.7724 C.3     
  16 C16           -2.8635     2.2297    -0.6519 C.ar    
  17 C17           -3.2205    -6.8237    -2.1076 C.3     
  18 C18            0.1268    -3.0173    -0.6123 C.3     
  19 C19            0.2775    -0.2009    -0.7704 C.2     
  20 C20           -2.6091     0.3594    -2.1349 C.ar    
  21 C21           -3.2803    -8.3505    -2.0291 C.3     
  22 C22           -2.7602     2.8154     0.7076 C.ar    
  23 C23           -3.3074     3.0098    -1.7174 C.ar    
  24 C24           -3.0500     1.1387    -3.1895 C.ar    
  25 C25           -3.4012     2.4599    -2.9801 C.ar    
  26 C26           -1.9688     3.9413     0.9256 C.ar    
  27 C27           -3.4588     2.2450     1.7697 C.ar    
  28 C28            1.6442     1.6716    -1.2598 C.3     
  29 C29           -3.7671    -8.9024    -3.3442 C.2     
  30 C30           -1.8767     4.4823     2.1920 C.ar    
  31 C31           -3.3595     2.7942     3.0320 C.ar    
  32 C32            1.6475     3.1700    -1.0989 C.ar    
  33 C33           -2.5678     3.9085     3.2438 C.ar    
  34 C34            2.2307     3.7442     0.0152 C.ar    
  35 C35            1.0724     3.9705    -2.0680 C.ar    
  36 C36            2.2337     5.1187     0.1628 C.ar    
  37 C37            1.0754     5.3449    -1.9204 C.ar    
  38 C38            1.6539     5.9189    -0.8038 C.ar    
  39 H39           -1.6547     0.7160     1.0522 H       
  40 H40           -1.1777    -4.5683     0.6970 H       
  41 H41           -2.8572    -4.4726     1.2786 H       
  42 H42           -3.6610    -4.3444    -1.0637 H       
  43 H43           -1.9814    -4.4401    -1.6453 H       
  44 H44           -3.9655    -0.1840     1.1700 H       
  45 H45           -1.7317    -6.6554    -0.5597 H       
  46 H46           -3.4112    -6.5598     0.0219 H       
  47 H47           -4.2150    -6.4316    -2.3203 H       
  48 H48           -2.5355    -6.5273    -2.9019 H       
  49 H49           -0.1683    -4.0636    -0.5320 H       
  50 H50            0.3471    -2.7808    -1.6532 H       
  51 H51            1.0144    -2.8425    -0.0042 H       
  52 H52           -2.3366    -0.6719    -2.3040 H       
  53 H53           -2.2857    -8.7426    -1.8163 H       
  54 H54           -3.9653    -8.6469    -1.2347 H       
  55 H55           -3.5779     4.0428    -1.5557 H       
  56 H56           -3.1203     0.7139    -4.1799 H       
  57 H57           -3.7454     3.0637    -3.8067 H       
  58 H58           -1.4282     4.3897     0.1051 H       
  59 H59           -4.0772     1.3749     1.6054 H       
  60 H60            2.4789     1.2446    -0.7037 H       
  61 H61            1.7440     1.4193    -2.3155 H       
  62 H62           -1.2635     5.3549     2.3621 H       
  63 H63           -3.9005     2.3529     3.8559 H       
  64 H64           -2.4924     4.3346     4.2333 H       
  65 H65            2.6837     3.1190     0.7704 H       
  66 H66            0.6210     3.5221    -2.9407 H       
  67 H67           -4.2150   -10.5348    -4.3690 H       
  68 H68            2.6887     5.5673     1.0335 H       
  69 H69            0.6263     5.9703    -2.6778 H       
  70 H70            1.6559     6.9927    -0.6883 H       
@<TRIPOS>BOND
   1    1   14 2
   2    2   19 1
   3    2   28 1
   4    3   19 2
   5    4   29 1
   6    4   67 1
   7    5   29 2
   8    6   10 1
   9    6   11 1
  10    6   14 am
  11    7    8 1
  12    7   14 am
  13    7   44 1
  14    8    9 1
  15    8   13 1
  16    8   39 1
  17    9   11 2
  18    9   19 1
  19   10   12 1
  20   10   40 1
  21   10   41 1
  22   11   18 1
  23   12   15 1
  24   12   42 1
  25   12   43 1
  26   13   16 ar
  27   13   20 ar
  28   15   17 1
  29   15   45 1
  30   15   46 1
  31   16   22 1
  32   16   23 ar
  33   17   21 1
  34   17   47 1
  35   17   48 1
  36   18   49 1
  37   18   50 1
  38   18   51 1
  39   20   24 ar
  40   20   52 1
  41   21   29 1
  42   21   53 1
  43   21   54 1
  44   22   26 ar
  45   22   27 ar
  46   23   25 ar
  47   23   55 1
  48   24   25 ar
  49   24   56 1
  50   25   57 1
  51   26   30 ar
  52   26   58 1
  53   27   31 ar
  54   27   59 1
  55   28   32 1
  56   28   60 1
  57   28   61 1
  58   30   33 ar
  59   30   62 1
  60   31   33 ar
  61   31   63 1
  62   32   34 ar
  63   32   35 ar
  64   33   64 1
  65   34   36 ar
  66   34   65 1
  67   35   37 ar
  68   35   66 1
  69   36   38 ar
  70   36   68 1
  71   37   38 ar
  72   37   69 1
  73   38   70 1

#	End of record

#	Name: 5458178
#	Creating user name:	landrgr1
#	Creation time:	28. 01. 2015 13:52

#	Modifying user name:	landrgr1
#	Modification time:	28. 01. 2015 13:52

#	Program:	corina 3.48 0006  22.01.2010

@<TRIPOS>MOLECULE
5458178
  14   13    0    0    0
SMALL
NO_CHARGES


@<TRIPOS>ATOM
   1 Ca1            0.0000     0.0000     0.0000 Du      
   2 P2             6.9274     6.5665     6.2692 P.3     
   3 O3             6.5694     8.3394     8.3957 O.3     
   4 O4             6.9486     5.0000     6.2606 O.co2   
   5 O5             8.3972     7.1088     6.2581 O.co2   
   6 O6             6.1696     7.0855     5.0000 O.co2   
   7 C7             6.0741     7.1544     7.7691 C.3     
   8 C8             6.8476     7.1210     9.0888 C.3     
   9 C9             8.2846     6.5965     9.0598 C.3     
  10 H10            5.0000     6.9722     7.8043 H       
  11 H11            6.2872     6.9162    10.0009 H       
  12 H12            8.7202     6.6750    10.0559 H       
  13 H13            8.2842     5.5531     8.7446 H       
  14 H14            8.8731     7.1877     8.3582 H       
@<TRIPOS>BOND
   1    2    4 ar
   2    2    5 ar
   3    2    6 ar
   4    2    7 1
   5    3    7 1
   6    3    8 1
   7    7    8 1
   8    7   10 1
   9    8    9 1
  10    8   11 1
  11    9   12 1
  12    9   13 1
  13    9   14 1

#	End of record

#	Name: 5455166
#	Creating user name:	landrgr1
#	Creation time:	28. 01. 2015 13:52

#	Modifying user name:	landrgr1
#	Modification time:	28. 01. 2015 13:52

#	Program:	corina 3.48 0006  22.01.2010

@<TRIPOS>MOLECULE
5455166
  42   45    0    0    0
SMALL
NO_CHARGES


@<TRIPOS>ATOM
   1 S1            -0.0051     1.7644     0.4442 S.3     
   2 O2             1.7915    -1.3927    -0.4862 O.2     
   3 N3            -4.5084     0.0323     0.8933 N.pl3   
   4 N4             2.4847     3.0773     0.4533 N.pl3   
   5 N5             2.2186     0.7475    -0.0475 N.2     
   6 C6            -2.4373    -0.2862     0.1387 C.2     
   7 C7            -3.0730     0.7745    -0.6662 C.ar    
   8 C8            -4.3681     0.9291    -0.1463 C.ar    
   9 C9            -3.3679    -0.6832     1.0590 C.2     
  10 C10           -1.0812    -0.8100    -0.0173 C.2     
  11 C11           -2.6513     1.5600    -1.7352 C.ar    
  12 C12           -5.2209     1.8723    -0.7096 C.ar    
  13 C13           -3.1579    -1.7525     2.0999 C.3     
  14 C14           -0.0138     0.0329     0.0503 C.2     
  15 C15           -3.5110     2.4894    -2.2800 C.ar    
  16 C16           -4.7906     2.6435    -1.7677 C.ar    
  17 C17            1.7520     1.9303     0.2768 C.2     
  18 C18            1.4019    -0.2747    -0.1852 C.2     
  19 C19            3.8809     3.0302     0.3987 C.ar    
  20 C20            6.6443     2.9371     0.2915 C.ar    
  21 C21            4.6019     4.1608     0.0362 C.ar    
  22 C22            4.5505     1.8543     0.7123 C.ar    
  23 C23            5.9810     4.1109    -0.0163 C.ar    
  24 C24            5.9297     1.8112     0.6578 C.ar    
  25 C25            8.1493     2.8865     0.2331 C.3     
  26 H26           -5.3085    -0.0692     1.4323 H       
  27 H27           -0.9260    -1.8654    -0.1861 H       
  28 H28           -1.6554     1.4416    -2.1360 H       
  29 H29           -6.2195     2.0001    -0.3186 H       
  30 H30           -3.5368    -2.7035     1.7255 H       
  31 H31           -2.0935    -1.8452     2.3159 H       
  32 H32           -3.6913    -1.4823     3.0112 H       
  33 H33           -3.1866     3.1006    -3.1092 H       
  34 H34           -5.4562     3.3747    -2.2021 H       
  35 H35            2.0339     3.9207     0.6159 H       
  36 H36            4.0845     5.0777    -0.2046 H       
  37 H37            3.9931     0.9747     0.9988 H       
  38 H38            6.5420     4.9886    -0.3016 H       
  39 H39            6.4508     0.8961     0.8976 H       
  40 H40            8.5600     3.1598     1.2050 H       
  41 H41            8.4691     1.8771    -0.0256 H       
  42 H42            8.5073     3.5859    -0.5224 H       
@<TRIPOS>BOND
   1    1   14 1
   2    1   17 1
   3    2   18 2
   4    3    8 1
   5    3    9 1
   6    3   26 1
   7    4   17 1
   8    4   19 1
   9    4   35 1
  10    5   17 2
  11    5   18 1
  12    6    7 1
  13    6    9 2
  14    6   10 1
  15    7    8 ar
  16    7   11 ar
  17    8   12 ar
  18    9   13 1
  19   10   14 2
  20   10   27 1
  21   11   15 ar
  22   11   28 1
  23   12   16 ar
  24   12   29 1
  25   13   30 1
  26   13   31 1
  27   13   32 1
  28   14   18 1
  29   15   16 ar
  30   15   33 1
  31   16   34 1
  32   19   21 ar
  33   19   22 ar
  34   20   23 ar
  35   20   24 ar
  36   20   25 1
  37   21   23 ar
  38   21   36 1
  39   22   24 ar
  40   22   37 1
  41   23   38 1
  42   24   39 1
  43   25   40 1
  44   25   41 1
  45   25   42 1

#	End of record

#	Name: 5452397
#	Creating user name:	landrgr1
#	Creation time:	28. 01. 2015 13:52

#	Modifying user name:	landrgr1
#	Modification time:	28. 01. 2015 13:52

#	Program:	corina 3.48 0006  22.01.2010

@<TRIPOS>MOLECULE
5452397
  47   49    0    0    0
SMALL
NO_CHARGES


@<TRIPOS>ATOM
   1 S1            -0.0172     1.4168     0.0098 S.o2    
   2 F2            -8.8176     3.1370    11.9771 F       
   3 O3             0.0021    -0.0041     0.0020 O.2     
   4 O4             1.1617     2.2101     0.0028 O.2     
   5 O5            -4.9898     2.6968     6.9512 O.2     
   6 N6            -0.9002     1.8797    -1.3124 N.am    
   7 N7            -5.0343     4.6035     8.2344 N.am    
   8 N8            -3.0860     3.0222     4.8191 N.pl3   
   9 N9            -4.3698     5.8293     8.2081 N.2     
  10 C10           -0.9297     1.8941     1.4396 C.ar    
  11 C11           -3.6099     4.6155     6.4910 C.2     
  12 C12           -2.3622     2.6436     3.6851 C.ar    
  13 C13           -1.8430     1.0193     1.9990 C.ar    
  14 C14           -0.7267     3.1406     2.0031 C.ar    
  15 C15           -3.5323     5.8912     7.2184 C.2     
  16 C16           -4.6136     3.8264     7.2159 C.2     
  17 C17           -2.5598     1.3902     3.1196 C.ar    
  18 C18           -1.4398     3.5178     3.1240 C.ar    
  19 C19           -2.8928     4.2404     5.3674 C.2     
  20 C20           -5.9949     4.2313     9.1844 C.ar    
  21 C21           -0.7022     3.2084    -1.8968 C.3     
  22 C22           -1.8794     0.9606    -1.8977 C.3     
  23 C23           -2.6424     7.0584     6.8765 C.3     
  24 C24           -6.3490     5.1127    10.1973 C.ar    
  25 C25           -6.5981     2.9827     9.1109 C.ar    
  26 C26           -7.2959     4.7440    11.1325 C.ar    
  27 C27           -7.5446     2.6178    10.0481 C.ar    
  28 C28           -7.8918     3.4960    11.0610 C.ar    
  29 H29           -1.9961     0.0450     1.5588 H       
  30 H30           -0.0094     3.8197     1.5664 H       
  31 H31           -3.2759     0.7081     3.5535 H       
  32 H32           -1.2840     4.4931     3.5610 H       
  33 H33           -2.1789     4.9225     4.9297 H       
  34 H34           -3.7271     2.4096     5.2122 H       
  35 H35            0.0599     3.7443    -1.3310 H       
  36 H36           -0.3800     3.1052    -2.9330 H       
  37 H37           -1.6391     3.7643    -1.8613 H       
  38 H38           -2.8493     1.1132    -1.4241 H       
  39 H39           -1.9633     1.1521    -2.9674 H       
  40 H40           -1.5543    -0.0673    -1.7369 H       
  41 H41           -2.8051     7.8619     7.5949 H       
  42 H42           -1.5996     6.7434     6.9136 H       
  43 H43           -2.8791     7.4142     5.8738 H       
  44 H44           -5.8840     6.0858    10.2538 H       
  45 H45           -6.3276     2.2976     8.3210 H       
  46 H46           -7.5716     5.4292    11.9205 H       
  47 H47           -8.0142     1.6470     9.9910 H       
@<TRIPOS>BOND
   1    1    3 2
   2    1    4 2
   3    1    6 am
   4    1   10 1
   5    2   28 1
   6    5   16 2
   7    6   21 1
   8    6   22 1
   9    7    9 1
  10    7   16 am
  11    7   20 1
  12    8   12 1
  13    8   19 1
  14    8   34 1
  15    9   15 2
  16   10   13 ar
  17   10   14 ar
  18   11   15 1
  19   11   16 1
  20   11   19 2
  21   12   17 ar
  22   12   18 ar
  23   13   17 ar
  24   13   29 1
  25   14   18 ar
  26   14   30 1
  27   15   23 1
  28   17   31 1
  29   18   32 1
  30   19   33 1
  31   20   24 ar
  32   20   25 ar
  33   21   35 1
  34   21   36 1
  35   21   37 1
  36   22   38 1
  37   22   39 1
  38   22   40 1
  39   23   41 1
  40   23   42 1
  41   23   43 1
  42   24   26 ar
  43   24   44 1
  44   25   27 ar
  45   25   45 1
  46   26   28 ar
  47   26   46 1
  48   27   28 ar
  49   27   47 1

#	End of record

#	Name: 5445833
#	Creating user name:	landrgr1
#	Creation time:	28. 01. 2015 13:52

#	Modifying user name:	landrgr1
#	Modification time:	28. 01. 2015 13:52

#	Program:	corina 3.48 0006  22.01.2010

@<TRIPOS>MOLECULE
5445833
  44   47    0    0    0
SMALL
NO_CHARGES


@<TRIPOS>ATOM
   1 S1            -0.0217     1.7496     0.0117 S.3     
   2 O2             4.2672    -4.2580     0.6067 O.3     
   3 O3             4.2418     7.5885     0.0107 O.3     
   4 O4             6.9270     7.2510    -0.0164 O.2     
   5 N5             2.1871     0.5573    -0.0186 N.2     
   6 N6             2.5254     2.9168    -0.0048 N.pl3   
   7 C7            -0.8222    -2.2195    -0.7487 C.3     
   8 C8            -1.1707    -0.9500     0.0266 C.3     
   9 C9             0.5312    -2.7544    -0.3676 C.ar    
  10 C10            1.5771    -1.8935    -0.0373 C.ar    
  11 C11            0.0021    -0.0041     0.0020 C.2     
  12 C12            1.3002    -0.4247    -0.0247 C.2     
  13 C13            0.7514    -4.1198    -0.3454 C.ar    
  14 C14            2.8326    -2.3867     0.2834 C.ar    
  15 C15            1.7397     1.7740    -0.0050 C.2     
  16 C16            3.0428    -3.7580     0.2941 C.ar    
  17 C17            1.9975    -4.6176    -0.0164 C.ar    
  18 C18            3.8651     2.8112    -0.0183 C.2     
  19 C19            4.6575     3.9638    -0.0180 C.2     
  20 C20            4.4091    -5.6799     0.5973 C.3     
  21 C21            4.0502     5.2403    -0.0035 C.2     
  22 C22            6.0651     3.8540    -0.0263 C.2     
  23 C23            4.8236     6.3588    -0.0028 C.2     
  24 C24            6.8340     4.9734    -0.0256 C.2     
  25 C25            6.2309     6.2435    -0.0166 C.2     
  26 C26            2.8135     7.6302     0.0236 C.3     
  27 H27           -1.5755    -2.9797    -0.5419 H       
  28 H28           -0.8284    -1.9968    -1.8157 H       
  29 H29           -2.0342    -0.4694    -0.4333 H       
  30 H30           -1.4068    -1.2084     1.0589 H       
  31 H31           -0.0532    -4.7988    -0.5860 H       
  32 H32            3.6394    -1.7097     0.5224 H       
  33 H33            2.1599    -5.6852     0.0001 H       
  34 H34            2.1079     3.7923     0.0052 H       
  35 H35            4.3299     1.8364    -0.0294 H       
  36 H36            2.9737     5.3271     0.0066 H       
  37 H37            5.4323    -5.9448     0.8637 H       
  38 H38            3.7205    -6.1186     1.3194 H       
  39 H39            4.1826    -6.0610    -0.3985 H       
  40 H40            6.5305     2.8794    -0.0329 H       
  41 H41            7.9106     4.8879    -0.0320 H       
  42 H42            2.4804     8.6680     0.0336 H       
  43 H43            2.4274     7.1332    -0.8663 H       
  44 H44            2.4432     7.1212     0.9135 H       
@<TRIPOS>BOND
   1    1   11 1
   2    1   15 1
   3    2   16 1
   4    2   20 1
   5    3   23 1
   6    3   26 1
   7    4   25 2
   8    5   12 1
   9    5   15 2
  10    6   15 1
  11    6   18 1
  12    6   34 1
  13    7    8 1
  14    7    9 1
  15    7   27 1
  16    7   28 1
  17    8   11 1
  18    8   29 1
  19    8   30 1
  20    9   10 ar
  21    9   13 ar
  22   10   12 1
  23   10   14 ar
  24   11   12 2
  25   13   17 ar
  26   13   31 1
  27   14   16 ar
  28   14   32 1
  29   16   17 ar
  30   17   33 1
  31   18   19 2
  32   18   35 1
  33   19   21 1
  34   19   22 1
  35   20   37 1
  36   20   38 1
  37   20   39 1
  38   21   23 2
  39   21   36 1
  40   22   24 2
  41   22   40 1
  42   23   25 1
  43   24   25 1
  44   24   41 1
  45   26   42 1
  46   26   43 1
  47   26   44 1

#	End of record

#	Name: 5442517
#	Creating user name:	landrgr1
#	Creation time:	28. 01. 2015 13:52

#	Modifying user name:	landrgr1
#	Modification time:	28. 01. 2015 13:52

#	Program:	corina 3.48 0006  22.01.2010

@<TRIPOS>MOLECULE
5442517
  41   43    0    0    0
SMALL
NO_CHARGES


@<TRIPOS>ATOM
   1 S1            -0.0225     1.8057     0.0120 S.3     
   2 O2            -1.6391    -1.8489     0.0078 O.3     
   3 O3             2.2724     3.3576    -0.0016 O.3     
   4 O4            -2.3406     0.2469     0.0257 O.2     
   5 O5             6.3960     2.7594    -0.0428 O.2     
   6 N6             3.8815     1.9095    -0.0240 N.pl3   
   7 N7             2.6516     1.2347    -0.0162 N.2     
   8 C8            -2.9372    -2.2520     0.0180 C.ar    
   9 C9            -3.6122    -2.4516    -1.1775 C.ar    
  10 C10           -3.5875    -2.4701     1.2239 C.ar    
  11 C11           -4.9313    -2.8618    -1.1644 C.ar    
  12 C12           -4.9067    -2.8802     1.2316 C.ar    
  13 C13           -5.5789    -3.0729     0.0388 C.ar    
  14 C14           -2.9072    -2.2207    -2.4892 C.3     
  15 C15           -2.8554    -2.2602     2.5243 C.3     
  16 C16            4.5838     4.3083    -0.0184 C.2     
  17 C17            3.6061     3.2217    -0.0146 C.2     
  18 C18            0.0021    -0.0041     0.0020 C.3     
  19 C19           -1.4117    -0.5257     0.0127 C.2     
  20 C20            5.9703     4.0220    -0.0331 C.2     
  21 C21            4.1575     5.6435    -0.0133 C.2     
  22 C22            1.7084     2.1353    -0.0028 C.2     
  23 C23            6.8902     5.0781    -0.0370 C.2     
  24 C24            5.0829     6.6601    -0.0174 C.2     
  25 C25            6.4437     6.3787    -0.0265 C.2     
  26 H26           -5.4572    -3.0173    -2.0948 H       
  27 H27           -5.4133    -3.0504     2.1701 H       
  28 H28           -6.6104    -3.3929     0.0470 H       
  29 H29           -2.4319    -3.1463    -2.8141 H       
  30 H30           -3.6307    -1.9012    -3.2392 H       
  31 H31           -2.1491    -1.4478    -2.3632 H       
  32 H32           -2.9836    -1.2282     2.8509 H       
  33 H33           -3.2584    -2.9335     3.2809 H       
  34 H34           -1.7948    -2.4671     2.3816 H       
  35 H35            0.5123    -0.3556    -0.8948 H       
  36 H36            0.5293    -0.3651     0.8851 H       
  37 H37            3.1023     5.8736    -0.0066 H       
  38 H38            4.7627     1.5042    -0.0339 H       
  39 H39            7.9501     4.8710    -0.0478 H       
  40 H40            4.7492     7.6873    -0.0134 H       
  41 H41            7.1575     7.1892    -0.0295 H       
@<TRIPOS>BOND
   1    1   18 1
   2    1   22 1
   3    2    8 1
   4    2   19 1
   5    3   17 1
   6    3   22 1
   7    4   19 2
   8    5   20 2
   9    6    7 1
  10    6   17 1
  11    6   38 1
  12    7   22 2
  13    8    9 ar
  14    8   10 ar
  15    9   11 ar
  16    9   14 1
  17   10   12 ar
  18   10   15 1
  19   11   13 ar
  20   11   26 1
  21   12   13 ar
  22   12   27 1
  23   13   28 1
  24   14   29 1
  25   14   30 1
  26   14   31 1
  27   15   32 1
  28   15   33 1
  29   15   34 1
  30   16   17 2
  31   16   20 1
  32   16   21 1
  33   18   19 1
  34   18   35 1
  35   18   36 1
  36   20   23 1
  37   21   24 2
  38   21   37 1
  39   23   25 2
  40   23   39 1
  41   24   25 1
  42   24   40 1
  43   25   41 1

#	End of record

#	Name: 5441926
#	Creating user name:	landrgr1
#	Creation time:	28. 01. 2015 13:52

#	Modifying user name:	landrgr1
#	Modification time:	28. 01. 2015 13:52

#	Program:	corina 3.48 0006  22.01.2010

@<TRIPOS>MOLECULE
5441926
  33   34    0    0    0
SMALL
NO_CHARGES


@<TRIPOS>ATOM
   1 Br1           -6.6875    -5.4670     0.0367 Br      
   2 S2            -0.0217     1.7523     0.0117 S.3     
   3 O3            -1.0636    -2.0697     0.0016 O.2     
   4 O4            -9.1506    -3.7192     0.0670 O.2     
   5 N5            -2.4138    -0.3045     0.0230 N.am    
   6 N6            -3.5511    -1.1227     0.0294 N.pl3   
   7 N7             2.4139     2.9991    -0.0049 N.pl3   
   8 N8             4.7525     0.1181    -0.0435 N.1     
   9 C9             1.2758    -0.4504    -0.0125 C.2     
  10 C10            0.0021    -0.0041     0.0020 C.2     
  11 C11            2.2235     0.5634    -0.0161 C.2     
  12 C12            1.6822     1.8327    -0.0042 C.2     
  13 C13            1.6355    -1.9138    -0.0238 C.3     
  14 C14           -1.1852    -0.8583     0.0088 C.2     
  15 C15           -5.9096    -1.3890     0.0500 C.2     
  16 C16           -4.7735    -0.5716     0.0436 C.2     
  17 C17           -5.7698    -2.7947     0.0417 C.2     
  18 C18           -7.1975    -0.8098     0.0707 C.2     
  19 C19           -6.8732    -3.5852     0.0479 C.2     
  20 C20           -8.2978    -1.6042     0.0769 C.2     
  21 C21            3.6338     0.3151    -0.0314 C.1     
  22 C22           -8.1566    -3.0047     0.0622 C.2     
  23 H23            1.7124    -2.2611    -1.0542 H       
  24 H24            2.5913    -2.0569     0.4801 H       
  25 H25            0.8628    -2.4818     0.4944 H       
  26 H26           -2.5107     0.6606     0.0287 H       
  27 H27           -4.8814     0.5030     0.0500 H       
  28 H28           -3.4542    -2.0879     0.0237 H       
  29 H29           -4.7859    -3.2400     0.0300 H       
  30 H30           -7.3067     0.2646     0.0820 H       
  31 H31            1.9601     3.8563     0.0037 H       
  32 H32            3.3833     2.9636    -0.0140 H       
  33 H33           -9.2827    -1.1615     0.0928 H       
@<TRIPOS>BOND
   1    1   19 1
   2    2   10 1
   3    2   12 1
   4    3   14 2
   5    4   22 2
   6    5    6 1
   7    5   14 am
   8    5   26 1
   9    6   16 1
  10    6   28 1
  11    7   12 1
  12    7   31 1
  13    7   32 1
  14    8   21 3
  15    9   10 2
  16    9   11 1
  17    9   13 1
  18   10   14 1
  19   11   12 2
  20   11   21 1
  21   13   23 1
  22   13   24 1
  23   13   25 1
  24   15   16 2
  25   15   17 1
  26   15   18 1
  27   16   27 1
  28   17   19 2
  29   17   29 1
  30   18   20 2
  31   18   30 1
  32   19   22 1
  33   20   22 1
  34   20   33 1

#	End of record

#	Name: 5439913
#	Creating user name:	landrgr1
#	Creation time:	28. 01. 2015 13:52

#	Modifying user name:	landrgr1
#	Modification time:	28. 01. 2015 13:52

#	Program:	corina 3.48 0006  22.01.2010

@<TRIPOS>MOLECULE
5439913
  45   47    0    0    0
SMALL
NO_CHARGES


@<TRIPOS>ATOM
   1 S1            -0.0218     1.7577     0.0117 S.3     
   2 O2            -1.0602    -6.8225    -0.0153 O.2     
   3 O3            -2.3389    -2.7960     0.0089 O.3     
   4 N4             0.6334    -8.3765    -0.0471 N.am    
   5 N5             2.0269    -8.3207    -0.0604 N.2     
   6 N6             0.0688    -4.1765    -0.0205 N.pl3   
   7 N7             2.8721     2.3087    -0.0130 N.1     
   8 C8             1.2696    -6.2171    -0.0425 C.2     
   9 C9             2.4500    -7.0934    -0.0584 C.2     
  10 C10           -0.1224    -9.5554    -0.0456 C.ar    
  11 C11            0.1201    -7.1297    -0.0300 C.2     
  12 C12            1.2472    -4.8316    -0.0353 C.2     
  13 C13            0.5137   -10.7899    -0.0585 C.ar    
  14 C14           -1.5096    -9.4927    -0.0254 C.ar    
  15 C15            0.0461    -2.7764    -0.0133 C.ar    
  16 C16            3.8896    -6.6479    -0.0694 C.3     
  17 C17           -1.6157   -11.8848    -0.0418 C.ar    
  18 C18           -0.2345   -11.9507    -0.0566 C.ar    
  19 C19           -2.2521   -10.6572    -0.0236 C.ar    
  20 C20           -1.1718    -2.0986     0.0020 C.ar    
  21 C21            1.2365    -2.0625    -0.0159 C.ar    
  22 C22           -2.4291   -13.1534    -0.0402 C.3     
  23 C23           -1.1913    -0.7143     0.0096 C.ar    
  24 C24            1.2150    -0.6819    -0.0078 C.ar    
  25 C25            0.0021    -0.0041     0.0020 C.ar    
  26 C26           -3.5488    -2.0358     0.0246 C.3     
  27 C27            1.7562     2.0963    -0.0035 C.1     
  28 H28            2.1736    -4.2765    -0.0415 H       
  29 H29            1.5924   -10.8420    -0.0704 H       
  30 H30           -2.0072    -8.5342    -0.0109 H       
  31 H31           -0.7633    -4.6750    -0.0149 H       
  32 H32            4.5404    -7.5222    -0.0801 H       
  33 H33            4.0765    -6.0450    -0.9581 H       
  34 H34            4.0931    -6.0543     0.8218 H       
  35 H35            0.2596   -12.9110    -0.0670 H       
  36 H36           -3.3309   -10.6090    -0.0079 H       
  37 H37            2.1804    -2.5874    -0.0232 H       
  38 H38           -2.1339    -0.1872     0.0211 H       
  39 H39           -2.6144   -13.4649     0.9878 H       
  40 H40           -3.3797   -12.9762    -0.5431 H       
  41 H41           -1.8814   -13.9368    -0.5640 H       
  42 H42            2.1422    -0.1282    -0.0095 H       
  43 H43           -4.4031    -2.7126     0.0287 H       
  44 H44           -3.5747    -1.4125     0.9184 H       
  45 H45           -3.5914    -1.4023    -0.8614 H       
@<TRIPOS>BOND
   1    1   25 1
   2    1   27 1
   3    2   11 2
   4    3   20 1
   5    3   26 1
   6    4    5 1
   7    4   10 1
   8    4   11 am
   9    5    9 2
  10    6   12 1
  11    6   15 1
  12    6   31 1
  13    7   27 3
  14    8    9 1
  15    8   11 1
  16    8   12 2
  17    9   16 1
  18   10   13 ar
  19   10   14 ar
  20   12   28 1
  21   13   18 ar
  22   13   29 1
  23   14   19 ar
  24   14   30 1
  25   15   20 ar
  26   15   21 ar
  27   16   32 1
  28   16   33 1
  29   16   34 1
  30   17   18 ar
  31   17   19 ar
  32   17   22 1
  33   18   35 1
  34   19   36 1
  35   20   23 ar
  36   21   24 ar
  37   21   37 1
  38   22   39 1
  39   22   40 1
  40   22   41 1
  41   23   25 ar
  42   23   38 1
  43   24   25 ar
  44   24   42 1
  45   26   43 1
  46   26   44 1
  47   26   45 1

#	End of record

#	Name: 5431847
#	Creating user name:	landrgr1
#	Creation time:	28. 01. 2015 13:52

#	Modifying user name:	landrgr1
#	Modification time:	28. 01. 2015 13:52

#	Program:	corina 3.48 0006  22.01.2010

@<TRIPOS>MOLECULE
5431847
  60   62    0    0    0
SMALL
NO_CHARGES


@<TRIPOS>ATOM
   1 S1            -0.0985     1.8245    -0.1109 S.3     
   2 O2             2.9688    -2.0309    -0.2773 O.3     
   3 O3            -0.9241     7.7999    -1.7820 O.3     
   4 O4             1.7513     8.0202    -1.1797 O.3     
   5 O5             3.3466     0.4854    -0.8936 O.2     
   6 O6            -5.8473     1.5393     2.1143 O.3     
   7 O7             0.9209    -2.5109     0.4423 O.2     
   8 O8            -4.2792     9.0285    -2.5427 O.3     
   9 O9            -2.3282     9.9699    -2.1062 O.2     
  10 N10           -1.0072    -0.7067     0.6688 N.pl3   
  11 C11            0.0038     0.0886     0.2034 C.2     
  12 C12            1.2934    -0.3251    -0.1070 C.2     
  13 C13            1.5709     2.0277    -0.6597 C.2     
  14 C14            2.1866     0.7015    -0.5833 C.2     
  15 C15            1.3549     4.3920    -1.2551 C.ar    
  16 C16            2.1615     3.1797    -1.0684 C.2     
  17 C17           -2.2326    -0.1382     1.0351 C.ar    
  18 C18            1.9455     5.6554    -1.1269 C.ar    
  19 C19           -0.0064     4.2888    -1.5676 C.ar    
  20 C20            1.1813     6.7917    -1.3037 C.ar    
  21 C21            1.7059    -1.6746     0.0364 C.2     
  22 C22           -0.1748     6.6802    -1.6091 C.ar    
  23 C23           -3.4168    -0.8197     0.7860 C.ar    
  24 C24           -2.2647     1.1052     1.6531 C.ar    
  25 C25           -0.7605     5.4280    -1.7421 C.ar    
  26 C26           -4.6568     0.9866     1.7593 C.ar    
  27 C27           -4.6253    -0.2581     1.1476 C.ar    
  28 C28           -3.4740     1.6653     2.0141 C.ar    
  29 C29            3.3156    -3.4069    -0.1086 C.3     
  30 C30           -5.8056     2.8234     2.7400 C.3     
  31 C31           -2.3064     7.6138    -2.0929 C.3     
  32 C32            4.7764    -3.6177    -0.5116 C.3     
  33 C33            3.1447     8.0601    -0.8652 C.3     
  34 C34           -7.2297     3.2792     3.0641 C.3     
  35 C35           -2.9717     8.9571    -2.2477 C.2     
  36 H36            3.2248     3.2043    -1.2562 H       
  37 H37           -0.8749    -1.6646     0.7450 H       
  38 H38            2.9958     5.7406    -0.8901 H       
  39 H39           -0.4645     3.3164    -1.6720 H       
  40 H40           -3.3925    -1.7885     0.3092 H       
  41 H41           -1.3439     1.6336     1.8516 H       
  42 H42           -1.8101     5.3473    -1.9831 H       
  43 H43           -5.5463    -0.7879     0.9540 H       
  44 H44           -3.4991     2.6320     2.4950 H       
  45 H45            3.1823    -3.6898     0.9355 H       
  46 H46            2.6727    -4.0233    -0.7370 H       
  47 H47           -5.2259     2.7602     3.6608 H       
  48 H48           -5.3390     3.5412     2.0654 H       
  49 H49           -2.3973     7.0540    -3.0237 H       
  50 H50           -2.7887     7.0602    -1.2873 H       
  51 H51            5.0409    -4.6673    -0.3830 H       
  52 H52            4.9097    -3.3348    -1.5558 H       
  53 H53            5.4193    -3.0013     0.1167 H       
  54 H54            3.3165     7.5599     0.0879 H       
  55 H55            3.7085     7.5534    -1.6484 H       
  56 H56            3.4717     9.0975    -0.7952 H       
  57 H57           -7.8094     3.3425     2.1433 H       
  58 H58           -7.6963     2.5614     3.7387 H       
  59 H59           -7.1979     4.2587     3.5414 H       
  60 H60           -4.6615     9.9122    -2.6320 H       
@<TRIPOS>BOND
   1    1   11 1
   2    1   13 1
   3    2   21 1
   4    2   29 1
   5    3   22 1
   6    3   31 1
   7    4   20 1
   8    4   33 1
   9    5   14 2
  10    6   26 1
  11    6   30 1
  12    7   21 2
  13    8   35 1
  14    8   60 1
  15    9   35 2
  16   10   11 1
  17   10   17 1
  18   10   37 1
  19   11   12 2
  20   12   14 1
  21   12   21 1
  22   13   14 1
  23   13   16 2
  24   15   16 1
  25   15   18 ar
  26   15   19 ar
  27   16   36 1
  28   17   23 ar
  29   17   24 ar
  30   18   20 ar
  31   18   38 1
  32   19   25 ar
  33   19   39 1
  34   20   22 ar
  35   22   25 ar
  36   23   27 ar
  37   23   40 1
  38   24   28 ar
  39   24   41 1
  40   25   42 1
  41   26   27 ar
  42   26   28 ar
  43   27   43 1
  44   28   44 1
  45   29   32 1
  46   29   45 1
  47   29   46 1
  48   30   34 1
  49   30   47 1
  50   30   48 1
  51   31   35 1
  52   31   49 1
  53   31   50 1
  54   32   51 1
  55   32   52 1
  56   32   53 1
  57   33   54 1
  58   33   55 1
  59   33   56 1
  60   34   57 1
  61   34   58 1
  62   34   59 1

#	End of record

#	Name: 5431398
#	Creating user name:	landrgr1
#	Creation time:	28. 01. 2015 13:52

#	Modifying user name:	landrgr1
#	Modification time:	28. 01. 2015 13:52

#	Program:	corina 3.48 0006  22.01.2010

@<TRIPOS>MOLECULE
5431398
  42   45    0    0    0
SMALL
NO_CHARGES


@<TRIPOS>ATOM
   1 Cl1            2.8819     7.5731     0.0180 Cl      
   2 Cl2          -10.3829    -1.2794     0.1212 Cl      
   3 O3            -0.0162     1.3456     0.0094 O.3     
   4 O4            -3.7588    -2.2260     0.0445 O.2     
   5 O5            -4.6920     2.1758     0.0509 O.2     
   6 O6            -1.2867     6.3012     0.0476 O.3     
   7 O7             0.3541     7.7961     0.0421 O.2     
   8 N8            -4.5982    -0.0939     0.0486 N.am    
   9 N9            -2.7164     1.0496     0.0325 N.am    
  10 C10           -2.3825    -0.3109     0.0222 C.2     
  11 C11           -3.6163    -1.0163     0.0390 C.2     
  12 C12           -5.9717    -0.3754     0.0661 C.ar    
  13 C13            0.0021    -0.0041     0.0020 C.2     
  14 C14           -4.0597     1.1369     0.0448 C.2     
  15 C15           -1.1286    -0.8491     0.0076 C.2     
  16 C16            1.2468     1.8084    -0.0001 C.2     
  17 C17            1.6413     3.2306     0.0042 C.ar    
  18 C18            1.3235    -0.4140    -0.0128 C.2     
  19 C19            2.1043     0.7446    -0.0140 C.2     
  20 C20           -6.8940     0.6622     0.0747 C.ar    
  21 C21           -6.4116    -1.6922     0.0690 C.ar    
  22 C22            0.6655     4.2260     0.0188 C.ar    
  23 C23            2.9951     3.5823    -0.0005 C.ar    
  24 C24            1.0467     5.5667     0.0232 C.ar    
  25 C25           -8.2464     0.3824     0.0914 C.ar    
  26 C26           -7.7650    -1.9669     0.0857 C.ar    
  27 C27            3.3662     4.9108     0.0044 C.ar    
  28 C28            2.4040     5.9042     0.0131 C.ar    
  29 C29           -8.6824    -0.9309     0.0996 C.ar    
  30 C30            0.0202     6.6282     0.0382 C.2     
  31 H31           -1.0013    -1.9215     0.0003 H       
  32 H32           -2.0934     1.7931     0.0255 H       
  33 H33            1.6821    -1.4327    -0.0217 H       
  34 H34            3.1833     0.7907    -0.0241 H       
  35 H35           -6.5542     1.6873     0.0687 H       
  36 H36           -5.6960    -2.5010     0.0578 H       
  37 H37           -0.3811     3.9596     0.0263 H       
  38 H38            3.7518     2.8117    -0.0077 H       
  39 H39           -8.9643     1.1893     0.0985 H       
  40 H40           -8.1077    -2.9911     0.0880 H       
  41 H41            4.4130     5.1765     0.0014 H       
  42 H42           -1.9216     7.0305     0.0572 H       
@<TRIPOS>BOND
   1    1   28 1
   2    2   29 1
   3    3   13 1
   4    3   16 1
   5    4   11 2
   6    5   14 2
   7    6   30 1
   8    6   42 1
   9    7   30 2
  10    8   11 am
  11    8   12 1
  12    8   14 am
  13    9   10 1
  14    9   14 am
  15    9   32 1
  16   10   11 1
  17   10   15 2
  18   12   20 ar
  19   12   21 ar
  20   13   15 1
  21   13   18 2
  22   15   31 1
  23   16   17 1
  24   16   19 2
  25   17   22 ar
  26   17   23 ar
  27   18   19 1
  28   18   33 1
  29   19   34 1
  30   20   25 ar
  31   20   35 1
  32   21   26 ar
  33   21   36 1
  34   22   24 ar
  35   22   37 1
  36   23   27 ar
  37   23   38 1
  38   24   28 ar
  39   24   30 1
  40   25   29 ar
  41   25   39 1
  42   26   29 ar
  43   26   40 1
  44   27   28 ar
  45   27   41 1

#	End of record

#	Name: 5428505
#	Creating user name:	landrgr1
#	Creation time:	28. 01. 2015 13:52

#	Modifying user name:	landrgr1
#	Modification time:	28. 01. 2015 13:52

#	Program:	corina 3.48 0006  22.01.2010

@<TRIPOS>MOLECULE
5428505
  24   26    0    0    0
SMALL
NO_CHARGES


@<TRIPOS>ATOM
   1 Cl1            0.0329    -4.5246    -0.0443 Cl      
   2 O2            -0.0163     1.3519     0.0095 O.3     
   3 O3            -2.0641    -2.7921     1.1000 O.3     
   4 O4             1.3537     2.9909     0.6789 O.2     
   5 C5             1.0776    -0.7013    -0.5730 C.ar    
   6 C6             2.1913     0.0725    -1.1540 C.ar    
   7 C7             2.2409     1.4543    -0.8561 C.ar    
   8 C8             0.0021    -0.0041     0.0020 C.ar    
   9 C9             1.0825    -2.0939    -0.5865 C.ar    
  10 C10            3.1658    -0.4948    -1.9610 C.ar    
  11 C11            1.1727     1.9974     0.0016 C.2     
  12 C12           -1.0473    -0.7159     0.5630 C.ar    
  13 C13            3.2669     2.2377    -1.3689 C.ar    
  14 C14            0.0307    -2.7887    -0.0280 C.ar    
  15 C15           -1.0331    -2.1008     0.5481 C.ar    
  16 C16            4.1783     0.2999    -2.4633 C.ar    
  17 C17            4.2285     1.6542    -2.1698 C.ar    
  18 H18            1.9080    -2.6281    -1.0333 H       
  19 H19            3.1340    -1.5488    -2.1946 H       
  20 H20           -1.8766    -0.1898     1.0124 H       
  21 H21            3.3118     3.2930    -1.1438 H       
  22 H22            4.9389    -0.1386    -3.0922 H       
  23 H23            5.0284     2.2586    -2.5712 H       
  24 H24           -2.7816    -2.9883     0.4821 H       
@<TRIPOS>BOND
   1    1   14 1
   2    2    8 1
   3    2   11 1
   4    3   15 1
   5    3   24 1
   6    4   11 2
   7    5    6 1
   8    5    8 ar
   9    5    9 ar
  10    6    7 ar
  11    6   10 ar
  12    7   11 1
  13    7   13 ar
  14    8   12 ar
  15    9   14 ar
  16    9   18 1
  17   10   16 ar
  18   10   19 1
  19   12   15 ar
  20   12   20 1
  21   13   17 ar
  22   13   21 1
  23   14   15 ar
  24   16   17 ar
  25   16   22 1
  26   17   23 1

#	End of record

#	Name: 5426132
#	Creating user name:	landrgr1
#	Creation time:	28. 01. 2015 13:52

#	Modifying user name:	landrgr1
#	Modification time:	28. 01. 2015 13:52

#	Program:	corina 3.48 0006  22.01.2010

@<TRIPOS>MOLECULE
5426132
  32   33    0    0    0
SMALL
NO_CHARGES


@<TRIPOS>ATOM
   1 O1            -0.0161     1.3397     0.0094 O.3     
   2 O2             6.4807     6.6487    -4.5314 O.3     
   3 O3             3.1393    -0.7087    -1.4207 O.2     
   4 O4             1.4109     2.9456     0.6999 O.2     
   5 N5             3.0123     3.5296    -1.5662 N.pl3   
   6 C6             3.8901     4.3190    -2.3166 C.ar    
   7 C7             2.1956     1.4046    -0.9177 C.2     
   8 C8             3.0652     2.1866    -1.6611 C.2     
   9 C9             3.8358     5.7036    -2.2191 C.ar    
  10 C10            4.8204     3.7186    -3.1555 C.ar    
  11 C11            2.1966    -0.0791    -0.9715 C.2     
  12 C12            0.0021    -0.0041     0.0020 C.2     
  13 C13            5.6276     5.8815    -3.8020 C.ar    
  14 C14            1.0303    -0.7235    -0.4664 C.2     
  15 C15            4.7026     6.4819    -2.9601 C.ar    
  16 C16            5.6863     4.4985    -3.8958 C.ar    
  17 C17            1.1832     1.9755     0.0014 C.2     
  18 C18           -1.1947    -0.7387     0.5489 C.3     
  19 C19            7.4068     5.9642    -5.3774 C.3     
  20 H20            2.3654     3.9491    -0.9775 H       
  21 H21            3.7854     1.7196    -2.3165 H       
  22 H22            3.1156     6.1712    -1.5640 H       
  23 H23            4.8664     2.6421    -3.2283 H       
  24 H24            0.9747    -1.8021    -0.4616 H       
  25 H25            4.6603     7.5585    -2.8846 H       
  26 H26            6.4098     4.0318    -4.5478 H       
  27 H27           -1.9392    -0.0186     0.8883 H       
  28 H28           -1.6249    -1.3650    -0.2326 H       
  29 H29           -0.8856    -1.3639     1.3866 H       
  30 H30            8.0405     5.3156    -4.7726 H       
  31 H31            6.8598     5.3631    -6.1037 H       
  32 H32            8.0267     6.6918    -5.9013 H       
@<TRIPOS>BOND
   1    1   12 1
   2    1   17 1
   3    2   13 1
   4    2   19 1
   5    3   11 2
   6    4   17 2
   7    5    6 1
   8    5    8 1
   9    5   20 1
  10    6    9 ar
  11    6   10 ar
  12    7    8 2
  13    7   11 1
  14    7   17 1
  15    8   21 1
  16    9   15 ar
  17    9   22 1
  18   10   16 ar
  19   10   23 1
  20   11   14 1
  21   12   14 2
  22   12   18 1
  23   13   15 ar
  24   13   16 ar
  25   14   24 1
  26   15   25 1
  27   16   26 1
  28   18   27 1
  29   18   28 1
  30   18   29 1
  31   19   30 1
  32   19   31 1
  33   19   32 1

#	End of record

#	Name: 5424890
#	Creating user name:	landrgr1
#	Creation time:	28. 01. 2015 13:52

#	Modifying user name:	landrgr1
#	Modification time:	28. 01. 2015 13:52

#	Program:	corina 3.48 0006  22.01.2010

@<TRIPOS>MOLECULE
5424890
  44   46    0    0    0
SMALL
NO_CHARGES


@<TRIPOS>ATOM
   1 O1             0.0163    -3.1992    -0.2217 O.2     
   2 O2             2.7950     0.4860    -0.1512 O.2     
   3 O3             0.3719     0.9146     0.2861 O.3     
   4 O4            -2.3978    -2.5159     1.4401 O.2     
   5 N5             3.6274    -1.5444    -0.4759 N.am    
   6 N6            -1.0767    -0.9095     0.0304 N.pl3   
   7 N7            -4.5335    -2.2438     1.9863 N.am    
   8 C8             3.2810    -5.6397    -1.2903 C.3     
   9 C9             4.5419    -5.1674    -0.5555 C.3     
  10 C10            2.0737    -4.9731    -0.6352 C.3     
  11 C11            4.7485    -3.6877    -0.8667 C.3     
  12 C12            2.2818    -3.4858    -0.5166 C.2     
  13 C13            3.4852    -2.9023    -0.6076 C.2     
  14 C14            1.1212    -2.6862    -0.2965 C.2     
  15 C15            1.2833    -1.2343    -0.1622 C.2     
  16 C16            2.6005    -0.7117    -0.2612 C.2     
  17 C17            0.1834    -0.3971     0.0543 C.2     
  18 C18           -2.1755    -0.0598     0.1231 C.ar    
  19 C19           -3.3300    -0.4720     0.8060 C.ar    
  20 C20           -2.1325     1.2018    -0.4547 C.ar    
  21 C21           -4.4253     0.3898     0.8918 C.ar    
  22 C22           -3.2234     2.0428    -0.3615 C.ar    
  23 C23           -3.3863    -1.8080     1.4292 C.2     
  24 C24           -4.3667     1.6367     0.3070 C.ar    
  25 C25           -4.5895    -3.5705     2.6052 C.3     
  26 H26            3.3366    -5.3510    -2.3400 H       
  27 H27            3.1921    -6.7231    -1.2100 H       
  28 H28            4.4143    -5.3031     0.5184 H       
  29 H29            5.4039    -5.7393    -0.8992 H       
  30 H30            1.1869    -5.1640    -1.2396 H       
  31 H31            1.9267    -5.3951     0.3590 H       
  32 H32            5.5486    -3.2975    -0.2376 H       
  33 H33            5.0307    -3.5776    -1.9137 H       
  34 H34            4.5191    -1.1678    -0.5375 H       
  35 H35           -1.2095    -1.8669    -0.0512 H       
  36 H36            0.4065     1.1965     1.2104 H       
  37 H37           -1.2446     1.5258    -0.9772 H       
  38 H38           -5.3176     0.0797     1.4153 H       
  39 H39           -3.1852     3.0233    -0.8126 H       
  40 H40           -5.2147     2.3021     0.3742 H       
  41 H41           -5.3221    -1.6791     1.9776 H       
  42 H42           -5.5908    -3.7460     2.9986 H       
  43 H43           -4.3541    -4.3296     1.8592 H       
  44 H44           -3.8653    -3.6231     3.4181 H       
@<TRIPOS>BOND
   1    1   14 2
   2    2   16 2
   3    3   17 1
   4    3   36 1
   5    4   23 2
   6    5   13 1
   7    5   16 am
   8    5   34 1
   9    6   17 1
  10    6   18 1
  11    6   35 1
  12    7   23 am
  13    7   25 1
  14    7   41 1
  15    8    9 1
  16    8   10 1
  17    8   26 1
  18    8   27 1
  19    9   11 1
  20    9   28 1
  21    9   29 1
  22   10   12 1
  23   10   30 1
  24   10   31 1
  25   11   13 1
  26   11   32 1
  27   11   33 1
  28   12   13 2
  29   12   14 1
  30   14   15 1
  31   15   16 1
  32   15   17 2
  33   18   19 ar
  34   18   20 ar
  35   19   21 ar
  36   19   23 1
  37   20   22 ar
  38   20   37 1
  39   21   24 ar
  40   21   38 1
  41   22   24 ar
  42   22   39 1
  43   24   40 1
  44   25   42 1
  45   25   43 1
  46   25   44 1

#	End of record

#	Name: 5423382
#	Creating user name:	landrgr1
#	Creation time:	28. 01. 2015 13:52

#	Modifying user name:	landrgr1
#	Modification time:	28. 01. 2015 13:52

#	Program:	corina 3.48 0006  22.01.2010

@<TRIPOS>MOLECULE
5423382
  39   41    0    0    0
SMALL
NO_CHARGES


@<TRIPOS>ATOM
   1 O1             0.0756    -2.6288     0.3779 O.2     
   2 O2             0.5029   -10.1719     3.6996 O.2     
   3 N3            -0.0178     1.4608     0.0101 N.pl3   
   4 N4            -0.7774     3.5061     0.0270 N.2     
   5 N5             0.2908    -2.7055     2.5847 N.am    
   6 N6             0.3098    -4.1064     2.5770 N.pl3   
   7 C7             0.0021    -0.0041     0.0020 C.3     
   8 C8             1.0829     2.2941     0.0040 C.ar    
   9 C9             0.1484    -0.5200     1.4349 C.3     
  10 C10            0.5768     3.6051     0.0151 C.ar    
  11 C11           -1.1243     2.2521     0.0189 C.2     
  12 C12            2.4547     2.0835    -0.0096 C.ar    
  13 C13            1.4640     4.6843     0.0168 C.ar    
  14 C14            0.1689    -2.0269     1.4267 C.2     
  15 C15            3.3115     3.1639    -0.0122 C.ar    
  16 C16            2.8114     4.4579     0.0024 C.ar    
  17 C17            0.4501    -6.1811     3.7214 C.2     
  18 C18            0.4311    -4.7816     3.7291 C.2     
  19 C19            0.5779    -6.8935     4.9343 C.2     
  20 C20            0.3357    -6.8834     2.5013 C.2     
  21 C21            0.5956    -8.2502     4.9243 C.2     
  22 C22            0.3539    -8.2401     2.4964 C.2     
  23 C23            0.4867    -8.9479     3.7063 C.2     
  24 H24           -0.9284    -0.3777    -0.4254 H       
  25 H25            0.8431    -0.3527    -0.5974 H       
  26 H26            1.0789    -0.1464     1.8624 H       
  27 H27           -0.6926    -0.1713     2.0343 H       
  28 H28           -2.1425     1.8919     0.0217 H       
  29 H29            2.8492     1.0782    -0.0177 H       
  30 H30            1.0855     5.6957     0.0292 H       
  31 H31            4.3792     3.0017    -0.0227 H       
  32 H32            3.4941     5.2948     0.0038 H       
  33 H33            0.3654    -2.2241     3.4234 H       
  34 H34            0.2352    -4.5878     1.7382 H       
  35 H35            0.5142    -4.2455     4.6630 H       
  36 H36            0.6618    -6.3587     5.8689 H       
  37 H37            0.2334    -6.3409     1.5730 H       
  38 H38            0.6936    -8.7954     5.8514 H       
  39 H39            0.2660    -8.7776     1.5638 H       
@<TRIPOS>BOND
   1    1   14 2
   2    2   23 2
   3    3    7 1
   4    3    8 1
   5    3   11 1
   6    4   10 1
   7    4   11 2
   8    5    6 1
   9    5   14 am
  10    5   33 1
  11    6   18 1
  12    6   34 1
  13    7    9 1
  14    7   24 1
  15    7   25 1
  16    8   10 ar
  17    8   12 ar
  18    9   14 1
  19    9   26 1
  20    9   27 1
  21   10   13 ar
  22   11   28 1
  23   12   15 ar
  24   12   29 1
  25   13   16 ar
  26   13   30 1
  27   15   16 ar
  28   15   31 1
  29   16   32 1
  30   17   18 2
  31   17   19 1
  32   17   20 1
  33   18   35 1
  34   19   21 2
  35   19   36 1
  36   20   22 2
  37   20   37 1
  38   21   23 1
  39   21   38 1
  40   22   23 1
  41   22   39 1

#	End of record

#	Name: 5423156
#	Creating user name:	landrgr1
#	Creation time:	28. 01. 2015 13:52

#	Modifying user name:	landrgr1
#	Modification time:	28. 01. 2015 13:52

#	Program:	corina 3.48 0006  22.01.2010

@<TRIPOS>MOLECULE
5423156
  35   37    0    0    0
SMALL
NO_CHARGES


@<TRIPOS>ATOM
   1 S1            -2.5074     1.0011    -0.1966 S.2     
   2 O2             2.2989     1.6915    -0.1284 O.2     
   3 O3            -0.5046     5.4246    -0.2564 O.2     
   4 N4             0.0775     1.4667    -0.1567 N.am    
   5 N5            -1.3398     3.3540    -0.2262 N.am    
   6 N6             2.0070     5.8460    -0.0914 N.pl3   
   7 N7             3.1149     6.6949    -0.2127 N.pl3   
   8 C8             0.1898     0.0064    -0.1224 C.3     
   9 C9            -0.3175    -0.7699    -1.3393 C.3     
  10 C10            1.1857    -0.6483    -1.0817 C.3     
  11 C11            1.2005     2.2141    -0.1570 C.2     
  12 C12           -1.1385     2.0293    -0.1927 C.2     
  13 C13            1.0609     3.6811    -0.1924 C.2     
  14 C14           -0.3090     4.2242    -0.2251 C.2     
  15 C15            2.1662     4.5110    -0.1944 C.2     
  16 C16            2.9500     8.0778    -0.1060 C.ar    
  17 C17            4.0474     8.9210    -0.2260 C.ar    
  18 C18            1.6874     8.6133     0.1147 C.ar    
  19 C19            3.8808    10.2878    -0.1200 C.ar    
  20 C20            1.5279     9.9811     0.2197 C.ar    
  21 C21            2.6235    10.8173     0.1059 C.ar    
  22 H22            0.0586    -0.4522     0.8577 H       
  23 H23           -0.7821    -1.7395    -1.1598 H       
  24 H24           -0.7348    -0.1942    -2.1654 H       
  25 H25            1.7574     0.0074    -1.7384 H       
  26 H26            1.7101    -1.5379    -0.7328 H       
  27 H27           -2.2476     3.6949    -0.2516 H       
  28 H28            3.1573     4.0902    -0.2784 H       
  29 H29            1.1255     6.2185     0.0667 H       
  30 H30            3.9964     6.3224    -0.3707 H       
  31 H31            5.0298     8.5081    -0.4017 H       
  32 H32            0.8314     7.9608     0.2036 H       
  33 H33            4.7336    10.9440    -0.2132 H       
  34 H34            0.5465    10.3982     0.3909 H       
  35 H35            2.4960    11.8865     0.1887 H       
@<TRIPOS>BOND
   1    1   12 2
   2    2   11 2
   3    3   14 2
   4    4    8 1
   5    4   11 am
   6    4   12 am
   7    5   12 am
   8    5   14 am
   9    5   27 1
  10    6    7 1
  11    6   15 1
  12    6   29 1
  13    7   16 1
  14    7   30 1
  15    8    9 1
  16    8   10 1
  17    8   22 1
  18    9   10 1
  19    9   23 1
  20    9   24 1
  21   10   25 1
  22   10   26 1
  23   11   13 1
  24   13   14 1
  25   13   15 2
  26   15   28 1
  27   16   17 ar
  28   16   18 ar
  29   17   19 ar
  30   17   31 1
  31   18   20 ar
  32   18   32 1
  33   19   21 ar
  34   19   33 1
  35   20   21 ar
  36   20   34 1
  37   21   35 1

#	End of record

#	Name: 5422067
#	Creating user name:	landrgr1
#	Creation time:	28. 01. 2015 13:52

#	Modifying user name:	landrgr1
#	Modification time:	28. 01. 2015 13:52

#	Program:	corina 3.48 0006  22.01.2010

@<TRIPOS>MOLECULE
5422067
  42   44    0    0    0
SMALL
NO_CHARGES


@<TRIPOS>ATOM
   1 O1            -0.0162     1.3457     0.0094 O.3     
   2 O2             1.0530     3.2726     0.0038 O.2     
   3 O3            -2.2866    -2.8290     0.0124 O.3     
   4 N4            -2.9545     0.2195    -1.3463 N.3     
   5 C5             2.4811     0.0940    -0.0410 C.2     
   6 C6             3.7821    -0.6620    -0.1099 C.3     
   7 C7             4.9145     0.1064     0.5715 C.3     
   8 C8             5.6056     0.9747    -0.4827 C.3     
   9 C9             4.5986     1.9579    -1.0732 C.3     
  10 C10            3.6072     2.3304     0.0329 C.3     
  11 C11            2.3952     1.4389    -0.0061 C.2     
  12 C12            1.2327    -0.6821    -0.0204 C.ar    
  13 C13            0.0021    -0.0041     0.0020 C.ar    
  14 C14           -1.1784    -0.7317     0.0122 C.ar    
  15 C15            1.1191     2.0565     0.0024 C.2     
  16 C16            1.2627    -2.0816    -0.0244 C.ar    
  17 C17           -2.5064    -0.0195     0.0321 C.3     
  18 C18           -1.1314    -2.1163     0.0036 C.ar    
  19 C19            0.0921    -2.7834    -0.0136 C.ar    
  20 C20           -4.3444     0.6945    -1.3731 C.3     
  21 C21           -2.0625     1.1626    -2.0338 C.3     
  22 H22            3.6598    -1.6267     0.3824 H       
  23 H23            4.0428    -0.8275    -1.1552 H       
  24 H24            4.5070     0.7395     1.3597 H       
  25 H25            5.6313    -0.5959     0.9970 H       
  26 H26            6.4234     1.5266    -0.0194 H       
  27 H27            6.0000     0.3387    -1.2753 H       
  28 H28            5.1159     2.8517    -1.4220 H       
  29 H29            4.0681     1.4900    -1.9025 H       
  30 H30            4.0963     2.2274     1.0015 H       
  31 H31            3.2943     3.3660    -0.1007 H       
  32 H32            2.2080    -2.6038    -0.0357 H       
  33 H33           -2.3998     0.9337     0.5500 H       
  34 H34           -3.2410    -0.6350     0.5515 H       
  35 H35            0.1141    -3.8632    -0.0188 H       
  36 H36           -4.4204     1.6273    -0.8141 H       
  37 H37           -4.6507     0.8636    -2.4054 H       
  38 H38           -4.9932    -0.0547    -0.9195 H       
  39 H39           -1.0525     0.7536    -2.0607 H       
  40 H40           -2.4172     1.3217    -3.0521 H       
  41 H41           -2.0558     2.1123    -1.4988 H       
  42 H42           -2.6313    -3.0304    -0.8684 H       
@<TRIPOS>BOND
   1    1   13 1
   2    1   15 1
   3    2   15 2
   4    3   18 1
   5    3   42 1
   6    4   17 1
   7    4   20 1
   8    4   21 1
   9    5    6 1
  10    5   11 2
  11    5   12 1
  12    6    7 1
  13    6   22 1
  14    6   23 1
  15    7    8 1
  16    7   24 1
  17    7   25 1
  18    8    9 1
  19    8   26 1
  20    8   27 1
  21    9   10 1
  22    9   28 1
  23    9   29 1
  24   10   11 1
  25   10   30 1
  26   10   31 1
  27   11   15 1
  28   12   13 ar
  29   12   16 ar
  30   13   14 ar
  31   14   17 1
  32   14   18 ar
  33   16   19 ar
  34   16   32 1
  35   17   33 1
  36   17   34 1
  37   18   19 ar
  38   19   35 1
  39   20   36 1
  40   20   37 1
  41   20   38 1
  42   21   39 1
  43   21   40 1
  44   21   41 1

#	End of record

#	Name: 5410292
#	Creating user name:	landrgr1
#	Creation time:	28. 01. 2015 13:52

#	Modifying user name:	landrgr1
#	Modification time:	28. 01. 2015 13:52

#	Program:	corina 3.48 0006  22.01.2010

@<TRIPOS>MOLECULE
5410292
  46   47    0    0    0
SMALL
NO_CHARGES


@<TRIPOS>ATOM
   1 O1             0.1725    -4.0195    -0.0208 O.2     
   2 N2            -0.0169     1.3971     0.0097 N.pl3   
   3 N3            -3.5426    -2.1694     0.0251 N.pl3   
   4 C4             0.0021    -0.0041     0.0020 C.2     
   5 C5             1.2417     2.1468     0.0017 C.3     
   6 C6            -1.2955     2.1123     0.0197 C.3     
   7 C7            -1.1780    -0.6881     0.0096 C.2     
   8 C8            -1.1707    -2.1012     0.0020 C.2     
   9 C9             1.2295    -0.6716    -0.0190 C.2     
  10 C10            1.6661     2.4155    -1.4435 C.3     
  11 C11           -1.7337     2.3534     1.4656 C.3     
  12 C12            0.1219    -2.7968    -0.0141 C.2     
  13 C13           -4.7398    -2.8890     0.0332 C.ar    
  14 C14            1.2998    -2.0308    -0.0277 C.2     
  15 C15           -2.3676    -2.8206     0.0100 C.2     
  16 C16           -7.1376    -2.9320     0.0568 C.ar    
  17 C17           -7.1114    -4.3145     0.0491 C.ar    
  18 C18           -5.9557    -2.2173     0.0488 C.ar    
  19 C19           -4.7173    -4.2784     0.0197 C.ar    
  20 C20           -5.9026    -4.9865     0.0278 C.ar    
  21 C21           -8.4570    -2.2043     0.0796 C.3     
  22 C22           -8.4030    -5.0909     0.0578 C.3     
  23 H23            1.1034     3.0945     0.5220 H       
  24 H24            2.0141     1.5653     0.5051 H       
  25 H25           -1.1805     3.0691    -0.4895 H       
  26 H26           -2.0495     1.5157    -0.4938 H       
  27 H27           -2.1152    -0.1514     0.0218 H       
  28 H28            2.1432    -0.0959    -0.0290 H       
  29 H29            2.6025     2.9733    -1.4494 H       
  30 H30            1.8044     1.4677    -1.9637 H       
  31 H31            0.8936     2.9969    -1.9468 H       
  32 H32           -1.8487     1.3965     1.9748 H       
  33 H33           -0.9797     2.9499     1.9791 H       
  34 H34           -2.6850     2.8855     1.4730 H       
  35 H35            2.2620    -2.5211    -0.0447 H       
  36 H36           -2.3486    -3.9004     0.0040 H       
  37 H37           -5.9769    -1.1376     0.0552 H       
  38 H38           -3.5596    -1.1996     0.0305 H       
  39 H39           -3.7739    -4.8037     0.0027 H       
  40 H40           -5.8858    -6.0663     0.0219 H       
  41 H41           -8.7604    -2.0343     1.1126 H       
  42 H42           -8.3528    -1.2469    -0.4308 H       
  43 H43           -9.2123    -2.8055    -0.4266 H       
  44 H44           -8.7246    -5.2726    -0.9677 H       
  45 H45           -8.2509    -6.0436     0.5651 H       
  46 H46           -9.1678    -4.5180     0.5823 H       
@<TRIPOS>BOND
   1    1   12 2
   2    2    4 1
   3    2    5 1
   4    2    6 1
   5    3   13 1
   6    3   15 1
   7    3   38 1
   8    4    7 2
   9    4    9 1
  10    5   10 1
  11    5   23 1
  12    5   24 1
  13    6   11 1
  14    6   25 1
  15    6   26 1
  16    7    8 1
  17    7   27 1
  18    8   12 1
  19    8   15 2
  20    9   14 2
  21    9   28 1
  22   10   29 1
  23   10   30 1
  24   10   31 1
  25   11   32 1
  26   11   33 1
  27   11   34 1
  28   12   14 1
  29   13   18 ar
  30   13   19 ar
  31   14   35 1
  32   15   36 1
  33   16   17 ar
  34   16   18 ar
  35   16   21 1
  36   17   20 ar
  37   17   22 1
  38   18   37 1
  39   19   20 ar
  40   19   39 1
  41   20   40 1
  42   21   41 1
  43   21   42 1
  44   21   43 1
  45   22   44 1
  46   22   45 1
  47   22   46 1

#	End of record

#	Name: 5407113
#	Creating user name:	landrgr1
#	Creation time:	28. 01. 2015 13:52

#	Modifying user name:	landrgr1
#	Modification time:	28. 01. 2015 13:52

#	Program:	corina 3.48 0006  22.01.2010

@<TRIPOS>MOLECULE
5407113
  34   35    0    0    0
SMALL
NO_CHARGES


@<TRIPOS>ATOM
   1 Cl1           -6.1978    -2.5191     0.2348 Cl      
   2 Cl2           -8.7944     2.2140     0.3642 Cl      
   3 O3            -0.1241     1.1074    -0.4198 O.3     
   4 O4             2.0057    -3.0053    -0.5123 O.2     
   5 O5            -4.2137     3.3919    -1.1227 O.2     
   6 N6            -3.7564    -0.8439    -0.0261 N.pl3   
   7 N7            -6.0784     3.3868     0.0794 N.am    
   8 C8            -4.9469    -0.1175     0.0667 C.ar    
   9 C9            -6.1028     1.9873     0.1192 C.ar    
  10 C10           -4.9192     1.2696     0.0274 C.ar    
  11 C11           -6.1611    -0.7840     0.1927 C.ar    
  12 C12           -1.3957    -0.9248    -0.2460 C.2     
  13 C13           -7.3130     1.3163     0.2498 C.ar    
  14 C14           -2.5844    -0.1994    -0.1534 C.2     
  15 C15           -7.3386    -0.0660     0.2840 C.ar    
  16 C16           -0.1572    -0.2469    -0.3804 C.2     
  17 C17           -1.4214    -2.3374    -0.2003 C.2     
  18 C18            1.0015    -0.9631    -0.4705 C.2     
  19 C19           -0.2654    -3.0393    -0.2910 C.2     
  20 C20            0.9649    -2.3651    -0.4304 C.2     
  21 C21           -5.0580     4.0261    -0.5260 C.2     
  22 C22           -4.9661     5.5289    -0.4616 C.3     
  23 H23           -3.9779     1.7892    -0.0742 H       
  24 H24           -3.7764    -1.8133     0.0015 H       
  25 H25           -2.5622     0.8799    -0.1840 H       
  26 H26           -8.2804    -0.5853     0.3818 H       
  27 H27           -6.7960     3.8962     0.4876 H       
  28 H28           -2.3620    -2.8573    -0.0931 H       
  29 H29            1.9465    -0.4504    -0.5730 H       
  30 H30           -0.2868    -4.1185    -0.2559 H       
  31 H31           -5.4996     5.9622    -1.3076 H       
  32 H32           -5.4128     5.8807     0.4684 H       
  33 H33           -3.9194     5.8308    -0.4988 H       
  34 H34            0.7647     1.4766    -0.5131 H       
@<TRIPOS>BOND
   1    1   11 1
   2    2   13 1
   3    3   16 1
   4    3   34 1
   5    4   20 2
   6    5   21 2
   7    6    8 1
   8    6   14 1
   9    6   24 1
  10    7    9 1
  11    7   21 am
  12    7   27 1
  13    8   10 ar
  14    8   11 ar
  15    9   10 ar
  16    9   13 ar
  17   10   23 1
  18   11   15 ar
  19   12   14 2
  20   12   16 1
  21   12   17 1
  22   13   15 ar
  23   14   25 1
  24   15   26 1
  25   16   18 2
  26   17   19 2
  27   17   28 1
  28   18   20 1
  29   18   29 1
  30   19   20 1
  31   19   30 1
  32   21   22 1
  33   22   31 1
  34   22   32 1
  35   22   33 1

#	End of record

#	Name: 5406720
#	Creating user name:	landrgr1
#	Creation time:	28. 01. 2015 13:52

#	Modifying user name:	landrgr1
#	Modification time:	28. 01. 2015 13:52

#	Program:	corina 3.48 0006  22.01.2010

@<TRIPOS>MOLECULE
5406720
  41   43    0    0    0
SMALL
NO_CHARGES


@<TRIPOS>ATOM
   1 O1            -1.6603     2.9971     0.0269 O.2     
   2 N2            -0.0168     1.3904     0.0097 N.am    
   3 N3             0.0021    -0.0041     0.0020 N.2     
   4 C4            -2.1394     0.6358     0.0259 C.2     
   5 C5             1.1198     2.2086     0.0032 C.ar    
   6 C6            -1.2010    -0.4933     0.0109 C.2     
   7 C7            -1.2896     1.8358     0.0184 C.2     
   8 C8             2.3866     1.6397    -0.0114 C.ar    
   9 C9             0.9825     3.5905     0.0056 C.ar    
  10 C10            3.3654     3.8250    -0.0100 C.ar    
  11 C11           -3.5302     0.5821     0.0389 C.2     
  12 C12            3.5055     2.4493    -0.0182 C.ar    
  13 C13            2.1053     4.3946    -0.0012 C.ar    
  14 C14           -1.5675    -1.9551     0.0061 C.3     
  15 C15           -4.2766     1.7669     0.0524 C.2     
  16 C16            4.5885     4.7054    -0.0170 C.3     
  17 C17           -5.6351     1.7145     0.0651 C.2     
  18 C18           -6.4177     2.9566     0.0792 C.ar    
  19 C19           -7.8173     2.9072     0.0923 C.ar    
  20 C20           -5.7687     4.1978     0.0855 C.ar    
  21 C21           -8.5440     4.0782     0.1055 C.ar    
  22 C22           -6.5111     5.3589     0.0988 C.ar    
  23 C23           -7.8944     5.3008     0.1054 C.ar    
  24 H24            2.4967     0.5654    -0.0171 H       
  25 H25           -0.0014     4.0360     0.0125 H       
  26 H26           -4.0337    -0.3734     0.0385 H       
  27 H27            4.4909     2.0075    -0.0296 H       
  28 H28            1.9992     5.4694     0.0003 H       
  29 H29           -0.6590    -2.5573    -0.0057 H       
  30 H30           -2.1459    -2.1876     0.9002 H       
  31 H31           -2.1625    -2.1776    -0.8797 H       
  32 H32           -3.7731     2.7224     0.0527 H       
  33 H33            4.8738     4.9228    -1.0463 H       
  34 H34            4.3683     5.6374     0.5036 H       
  35 H35            5.4080     4.1928     0.4867 H       
  36 H36           -6.1386     0.7590     0.0647 H       
  37 H37           -8.3255     1.9543     0.0917 H       
  38 H38           -4.6898     4.2448     0.0804 H       
  39 H39           -9.6234     4.0419     0.1156 H       
  40 H40           -6.0124     6.3168     0.1040 H       
  41 H41           -8.4701     6.2146     0.1150 H       
@<TRIPOS>BOND
   1    1    7 2
   2    2    3 1
   3    2    5 1
   4    2    7 am
   5    3    6 2
   6    4    6 1
   7    4    7 1
   8    4   11 2
   9    5    8 ar
  10    5    9 ar
  11    6   14 1
  12    8   12 ar
  13    8   24 1
  14    9   13 ar
  15    9   25 1
  16   10   12 ar
  17   10   13 ar
  18   10   16 1
  19   11   15 1
  20   11   26 1
  21   12   27 1
  22   13   28 1
  23   14   29 1
  24   14   30 1
  25   14   31 1
  26   15   17 2
  27   15   32 1
  28   16   33 1
  29   16   34 1
  30   16   35 1
  31   17   18 1
  32   17   36 1
  33   18   19 ar
  34   18   20 ar
  35   19   21 ar
  36   19   37 1
  37   20   22 ar
  38   20   38 1
  39   21   23 ar
  40   21   39 1
  41   22   23 ar
  42   22   40 1
  43   23   41 1

#	End of record

#	Name: 5405416
#	Creating user name:	landrgr1
#	Creation time:	28. 01. 2015 13:52

#	Modifying user name:	landrgr1
#	Modification time:	28. 01. 2015 13:52

#	Program:	corina 3.48 0006  22.01.2010

@<TRIPOS>MOLECULE
5405416
  36   38    0    0    0
SMALL
NO_CHARGES


@<TRIPOS>ATOM
   1 O1            -0.4001    -2.6276     0.0397 O.2     
   2 N2            -0.0422     1.4143     0.0518 N.pl3   
   3 N3            -0.0348     0.0133     0.0439 N.pl3   
   4 C4             1.2578     1.8465     0.0164 C.2     
   5 C5             1.2715    -0.4009     0.0036 C.2     
   6 C6             1.7026     3.2532     0.0117 C.ar    
   7 C7             2.0805     0.7353    -0.0136 C.2     
   8 C8             1.7353    -1.7898    -0.0175 C.2     
   9 C9             1.2434     4.1316    -0.9738 C.ar    
  10 C10            2.5804     3.7153     0.9958 C.ar    
  11 C11            0.8034    -2.8566     0.0032 C.2     
  12 C12            3.1059    -2.0786    -0.0643 C.2     
  13 C13            1.6634     5.4449    -0.9719 C.ar    
  14 C14            2.6152    -4.4226    -0.0585 C.2     
  15 C15            1.2732    -4.1768    -0.0182 C.2     
  16 C16            3.5293    -3.3759    -0.0841 C.2     
  17 C17            0.2920     3.6443    -2.0361 C.3     
  18 C18            2.9919     5.0317     0.9850 C.ar    
  19 C19            2.5376     5.8941     0.0028 C.ar    
  20 C20            3.1114    -5.8454    -0.0808 C.3     
  21 H21            3.1600     0.7454    -0.0452 H       
  22 H22           -0.8301     1.9796     0.0742 H       
  23 H23           -0.8156    -0.5618     0.0636 H       
  24 H24            2.9355     3.0434     1.7632 H       
  25 H25            3.8269    -1.2748    -0.0849 H       
  26 H26            1.3097     6.1247    -1.7330 H       
  27 H27            0.5736    -4.9994    -0.0025 H       
  28 H28            4.5869    -3.5916    -0.1206 H       
  29 H29           -0.7330     3.8508    -1.7283 H       
  30 H30            0.5003     4.1590    -2.9741 H       
  31 H31            0.4206     2.5708    -2.1743 H       
  32 H32            3.6703     5.3903     1.7449 H       
  33 H33            2.8632     6.9238    -0.0007 H       
  34 H34            3.2013    -6.1827    -1.1134 H       
  35 H35            4.0859    -5.8979     0.4047 H       
  36 H36            2.4060    -6.4845     0.4502 H       
@<TRIPOS>BOND
   1    1   11 2
   2    2    3 1
   3    2    4 1
   4    2   22 1
   5    3    5 1
   6    3   23 1
   7    4    6 1
   8    4    7 2
   9    5    7 1
  10    5    8 2
  11    6    9 ar
  12    6   10 ar
  13    7   21 1
  14    8   11 1
  15    8   12 1
  16    9   13 ar
  17    9   17 1
  18   10   18 ar
  19   10   24 1
  20   11   15 1
  21   12   16 2
  22   12   25 1
  23   13   19 ar
  24   13   26 1
  25   14   15 2
  26   14   16 1
  27   14   20 1
  28   15   27 1
  29   16   28 1
  30   17   29 1
  31   17   30 1
  32   17   31 1
  33   18   19 ar
  34   18   32 1
  35   19   33 1
  36   20   34 1
  37   20   35 1
  38   20   36 1

#	End of record

#	Name: 5404589
#	Creating user name:	landrgr1
#	Creation time:	28. 01. 2015 13:52

#	Modifying user name:	landrgr1
#	Modification time:	28. 01. 2015 13:52

#	Program:	corina 3.48 0006  22.01.2010

@<TRIPOS>MOLECULE
5404589
  30   31    0    0    0
SMALL
NO_CHARGES


@<TRIPOS>ATOM
   1 Br1           -4.0587    -2.5219     0.0291 Br      
   2 O2             3.4508     3.6780    -0.0044 O.2     
   3 O3            -2.2174    -0.1000     0.0227 O.2     
   4 N4            -0.0169     1.3968     0.0097 N.pl3   
   5 N5             0.0021    -0.0041     0.0020 N.am    
   6 N6            -0.0317    -2.9701    -0.0141 N.pl3   
   7 N7            -0.3964    -4.2016    -0.0170 N.2     
   8 C8             1.1165     3.4801     0.0101 C.2     
   9 C9            -0.1045     5.5445     0.0384 C.2     
  10 C10           -0.1069     4.1853     0.0256 C.2     
  11 C11            2.3684     4.2478     0.0084 C.2     
  12 C12            1.1354     2.0832     0.0024 C.2     
  13 C13            1.0835     6.2699     0.0367 C.2     
  14 C14           -1.1359    -2.1642     0.0013 C.2     
  15 C15            2.2961     5.6514     0.0222 C.2     
  16 C16           -1.4181     6.2830     0.0543 C.3     
  17 C17           -1.1558    -0.6938     0.0094 C.2     
  18 C18           -2.2321    -3.0109     0.0077 C.2     
  19 C19           -1.7008    -4.3037    -0.0046 C.2     
  20 H20           -1.0425     3.6458     0.0268 H       
  21 H21            2.0779     1.5560    -0.0094 H       
  22 H22            1.0422     7.3491     0.0469 H       
  23 H23            3.2022     6.2390     0.0216 H       
  24 H24           -1.7278     6.4513     1.0858 H       
  25 H25           -1.3021     7.2416    -0.4512 H       
  26 H26           -2.1745     5.6901    -0.4600 H       
  27 H27           -0.8635     1.8703     0.0163 H       
  28 H28            0.8486    -0.4776    -0.0086 H       
  29 H29            0.8872    -2.6592    -0.0179 H       
  30 H30           -2.2665    -5.2236    -0.0045 H       
@<TRIPOS>BOND
   1    1   18 1
   2    2   11 2
   3    3   17 2
   4    4    5 1
   5    4   12 1
   6    4   27 1
   7    5   17 am
   8    5   28 1
   9    6    7 1
  10    6   14 1
  11    6   29 1
  12    7   19 2
  13    8   10 1
  14    8   11 1
  15    8   12 2
  16    9   10 2
  17    9   13 1
  18    9   16 1
  19   10   20 1
  20   11   15 1
  21   12   21 1
  22   13   15 2
  23   13   22 1
  24   14   17 1
  25   14   18 2
  26   15   23 1
  27   16   24 1
  28   16   25 1
  29   16   26 1
  30   18   19 1
  31   19   30 1

#	End of record

#	Name: 5403792
#	Creating user name:	landrgr1
#	Creation time:	28. 01. 2015 13:52

#	Modifying user name:	landrgr1
#	Modification time:	28. 01. 2015 13:52

#	Program:	corina 3.48 0006  22.01.2010

@<TRIPOS>MOLECULE
5403792
  32   32    0    0    0
SMALL
NO_CHARGES


@<TRIPOS>ATOM
   1 S1            -0.0731     1.4362    -1.6467 S.3     
   2 O2            -6.4828     1.1962    -0.5191 O.3     
   3 O3            -7.2309    -1.1517     0.0802 O.3     
   4 O4            -4.3018     1.6056    -0.6471 O.2     
   5 O5            -5.6738    -2.7106     0.3731 O.2     
   6 C6            -2.5250    -0.1324    -0.4934 C.2     
   7 C7            -1.6117     0.3188     0.4354 C.2     
   8 C8            -3.5376    -1.0064    -0.1065 C.2     
   9 C9            -0.5098     1.0920     0.0214 C.2     
  10 C10           -2.4275     0.3202    -1.9275 C.3     
  11 C11           -4.8700    -0.5921    -0.1462 C.2     
  12 C12            0.3987     1.6994     0.8569 C.2     
  13 C13            1.3732     2.3906     0.1836 C.2     
  14 C14            1.2758     2.3569    -1.1536 C.2     
  15 C15           -5.1943     0.8022    -0.4525 C.2     
  16 C16           -5.9432    -1.5520     0.1185 C.2     
  17 C17           -6.7278     2.5824    -0.8250 C.3     
  18 C18           -8.2342    -2.1493     0.3506 C.3     
  19 H19           -1.7411     0.0792     1.4805 H       
  20 H20           -3.2921    -2.0047     0.2243 H       
  21 H21           -1.5040    -0.0580    -2.3659 H       
  22 H22           -3.2797    -0.0635    -2.4884 H       
  23 H23           -2.4282     1.4096    -1.9656 H       
  24 H24            0.3493     1.6385     1.9340 H       
  25 H25            2.1622     2.9235     0.6934 H       
  26 H26            1.9608     2.8479    -1.8290 H       
  27 H27           -7.8022     2.7649    -0.8478 H       
  28 H28           -6.2689     3.2097    -0.0608 H       
  29 H29           -6.2979     2.8214    -1.7976 H       
  30 H30           -8.1552    -2.9521    -0.3823 H       
  31 H31           -8.0832    -2.5545     1.3512 H       
  32 H32           -9.2235    -1.6960     0.2878 H       
@<TRIPOS>BOND
   1    1    9 1
   2    1   14 1
   3    2   15 1
   4    2   17 1
   5    3   16 1
   6    3   18 1
   7    4   15 2
   8    5   16 2
   9    6    7 2
  10    6    8 1
  11    6   10 1
  12    7    9 1
  13    7   19 1
  14    8   11 2
  15    8   20 1
  16    9   12 2
  17   10   21 1
  18   10   22 1
  19   10   23 1
  20   11   15 1
  21   11   16 1
  22   12   13 1
  23   12   24 1
  24   13   14 2
  25   13   25 1
  26   14   26 1
  27   17   27 1
  28   17   28 1
  29   17   29 1
  30   18   30 1
  31   18   31 1
  32   18   32 1

#	End of record

#	Name: 5403777
#	Creating user name:	landrgr1
#	Creation time:	28. 01. 2015 13:52

#	Modifying user name:	landrgr1
#	Modification time:	28. 01. 2015 13:52

#	Program:	corina 3.48 0006  22.01.2010

@<TRIPOS>MOLECULE
5403777
  41   43    0    0    0
SMALL
NO_CHARGES


@<TRIPOS>ATOM
   1 S1            -0.0139     1.7476     0.2522 S.3     
   2 O2            -5.8219    -5.1524     0.0303 O.2     
   3 O3             1.0501     4.3277     0.4003 O.2     
   4 N4             1.1809    -0.6670    -0.0151 N.pl3   
   5 N5            -3.4519     0.4788     0.3459 N.1     
   6 N6             3.2479     4.0650     0.2498 N.am    
   7 C7             0.1252    -4.2709    -0.2266 C.3     
   8 C8             0.1195    -2.7684    -0.1180 C.2     
   9 C9             1.4571    -4.7683    -0.7837 C.3     
  10 C10            2.5866    -4.1264     0.0313 C.3     
  11 C11            2.6170    -2.6337    -0.2874 C.3     
  12 C12            1.2450    -2.0262    -0.1330 C.2     
  13 C13           -1.1383    -2.1327     0.0047 C.2     
  14 C14           -1.1970    -0.7290     0.1199 C.2     
  15 C15            0.0054    -0.0084     0.1077 C.2     
  16 C16           -2.3764    -2.9309     0.0116 C.2     
  17 C17           -2.3648    -4.2361     0.5193 C.2     
  18 C18           -3.5657    -2.3821    -0.4843 C.2     
  19 C19           -2.4544    -0.0555     0.2459 C.1     
  20 C20           -3.5101    -4.9755     0.5260 C.2     
  21 C21           -4.7118    -3.1200    -0.4784 C.2     
  22 C22            1.7619     2.0889     0.1758 C.3     
  23 C23           -4.6999    -4.4288     0.0244 C.2     
  24 C24            1.9931     3.5741     0.2834 C.2     
  25 H25           -0.0340    -4.7027     0.7615 H       
  26 H26           -0.6809    -4.5859    -0.8891 H       
  27 H27            1.5105    -5.8534    -0.6953 H       
  28 H28            1.5488    -4.4791    -1.8307 H       
  29 H29            2.4003    -4.2714     1.0954 H       
  30 H30            3.5398    -4.5798    -0.2407 H       
  31 H31            3.3085    -2.1357     0.3921 H       
  32 H32            2.9585    -2.4926    -1.3129 H       
  33 H33            2.0060    -0.1571    -0.0154 H       
  34 H34           -1.4482    -4.6572     0.9052 H       
  35 H35           -3.5748    -1.3738    -0.8713 H       
  36 H36           -3.5009    -5.9821     0.9172 H       
  37 H37           -5.6289    -2.6967    -0.8608 H       
  38 H38            2.2651     1.5822     0.9993 H       
  39 H39            2.1611     1.7268    -0.7717 H       
  40 H40            3.3967     5.0210     0.3191 H       
  41 H41            4.0021     3.4623     0.1563 H       
@<TRIPOS>BOND
   1    1   15 1
   2    1   22 1
   3    2   23 2
   4    3   24 2
   5    4   12 1
   6    4   15 1
   7    4   33 1
   8    5   19 3
   9    6   24 am
  10    6   40 1
  11    6   41 1
  12    7    8 1
  13    7    9 1
  14    7   25 1
  15    7   26 1
  16    8   12 2
  17    8   13 1
  18    9   10 1
  19    9   27 1
  20    9   28 1
  21   10   11 1
  22   10   29 1
  23   10   30 1
  24   11   12 1
  25   11   31 1
  26   11   32 1
  27   13   14 1
  28   13   16 2
  29   14   15 2
  30   14   19 1
  31   16   17 1
  32   16   18 1
  33   17   20 2
  34   17   34 1
  35   18   21 2
  36   18   35 1
  37   20   23 1
  38   20   36 1
  39   21   23 1
  40   21   37 1
  41   22   24 1
  42   22   38 1
  43   22   39 1

#	End of record

#	Name: 5396087
#	Creating user name:	landrgr1
#	Creation time:	28. 01. 2015 13:52

#	Modifying user name:	landrgr1
#	Modification time:	28. 01. 2015 13:52

#	Program:	corina 3.48 0006  22.01.2010

@<TRIPOS>MOLECULE
5396087
  39   41    0    0    0
SMALL
NO_CHARGES


@<TRIPOS>ATOM
   1 S1            -5.2576    -2.9341     3.2260 S.2     
   2 F2             3.2100     3.9466    -1.1042 F       
   3 O3            -0.0743     1.3911    -0.3950 O.3     
   4 O4            -5.4062     0.7883    -0.0614 O.2     
   5 N5            -5.6305    -0.8931     1.4859 N.am    
   6 N6            -3.5294    -1.5756     1.6405 N.am    
   7 C7            -3.5443    -0.5285     0.7102 C.2     
   8 C8            -1.1776    -0.6741     0.1042 C.ar    
   9 C9            -2.4887    -0.0182     0.0267 C.2     
  10 C10           -0.0030     0.0656    -0.1122 C.ar    
  11 C11           -4.9497    -0.1011     0.6328 C.2     
  12 C12           -4.7892    -1.7571     2.0743 C.2     
  13 C13            1.1617     2.0775    -0.6028 C.3     
  14 C14           -1.0894    -2.0391     0.3997 C.ar    
  15 C15            0.8863     3.5284    -0.9028 C.ar    
  16 C16            1.2281    -0.5645    -0.0359 C.ar    
  17 C17           -7.0718    -0.8174     1.7372 C.3     
  18 C18            0.1450    -2.6475     0.4712 C.ar    
  19 C19            1.2996    -1.9145     0.2518 C.ar    
  20 C20            1.9372     4.3981    -1.1413 C.ar    
  21 C21           -0.4153     3.9903    -0.9458 C.ar    
  22 C22            1.6827     5.7306    -1.4173 C.ar    
  23 C23           -0.6683     5.3214    -1.2215 C.ar    
  24 C24            0.3801     6.1915    -1.4545 C.ar    
  25 H25           -2.6132     0.8705    -0.5742 H       
  26 H26           -2.7498    -2.0797     1.9214 H       
  27 H27            1.7746     2.0022     0.2955 H       
  28 H28            1.6908     1.6269    -1.4425 H       
  29 H29           -1.9870    -2.6145     0.5719 H       
  30 H30            2.1337     0.0000    -0.2018 H       
  31 H31           -7.5968    -1.4715     1.0411 H       
  32 H32           -7.2794    -1.1332     2.7596 H       
  33 H33           -7.4114     0.2090     1.5980 H       
  34 H34            0.2125    -3.7009     0.6996 H       
  35 H35            2.2625    -2.4003     0.3095 H       
  36 H36           -1.2353     3.3113    -0.7642 H       
  37 H37            2.5016     6.4098    -1.6030 H       
  38 H38           -1.6860     5.6814    -1.2552 H       
  39 H39            0.1813     7.2310    -1.6695 H       
@<TRIPOS>BOND
   1    1   12 2
   2    2   20 1
   3    3   10 1
   4    3   13 1
   5    4   11 2
   6    5   11 am
   7    5   12 am
   8    5   17 1
   9    6    7 1
  10    6   12 am
  11    6   26 1
  12    7    9 2
  13    7   11 1
  14    8    9 1
  15    8   10 ar
  16    8   14 ar
  17    9   25 1
  18   10   16 ar
  19   13   15 1
  20   13   27 1
  21   13   28 1
  22   14   18 ar
  23   14   29 1
  24   15   20 ar
  25   15   21 ar
  26   16   19 ar
  27   16   30 1
  28   17   31 1
  29   17   32 1
  30   17   33 1
  31   18   19 ar
  32   18   34 1
  33   19   35 1
  34   20   22 ar
  35   21   23 ar
  36   21   36 1
  37   22   24 ar
  38   22   37 1
  39   23   24 ar
  40   23   38 1
  41   24   39 1

#	End of record

#	Name: 5395801
#	Creating user name:	landrgr1
#	Creation time:	28. 01. 2015 13:52

#	Modifying user name:	landrgr1
#	Modification time:	28. 01. 2015 13:52

#	Program:	corina 3.48 0006  22.01.2010

@<TRIPOS>MOLECULE
5395801
  35   37    0    0    0
SMALL
NO_CHARGES


@<TRIPOS>ATOM
   1 O1            -1.6589     2.9983     0.0265 O.2     
   2 N2            -0.0168     1.3902     0.0097 N.am    
   3 N3             0.0021    -0.0041     0.0020 N.2     
   4 N4            -3.4604     0.5837     0.0379 N.2     
   5 N5            -4.0612    -0.5578     0.0370 N.pl3   
   6 C6            -2.1407     0.6353     0.0259 C.2     
   7 C7            -1.1991    -0.4949     0.0109 C.2     
   8 C8             1.1203     2.2077     0.0032 C.ar    
   9 C9            -1.2891     1.8371     0.0184 C.2     
  10 C10            2.3867     1.6381    -0.0114 C.ar    
  11 C11            0.9837     3.5898     0.0057 C.ar    
  12 C12           -1.5634    -1.9571     0.0057 C.3     
  13 C13           -5.4550    -0.6123     0.0496 C.ar    
  14 C14            3.5061     2.4471    -0.0177 C.ar    
  15 C15            2.1070     4.3932    -0.0007 C.ar    
  16 C16            3.3668     3.8229    -0.0095 C.ar    
  17 C17           -6.1043    -1.8414     0.0488 C.ar    
  18 C18           -6.1981     0.5623     0.0689 C.ar    
  19 C19           -7.4841    -1.8913     0.0612 C.ar    
  20 C20           -7.5776     0.5043     0.0813 C.ar    
  21 C21           -8.2201    -0.7204     0.0741 C.ar    
  22 H22            2.4962     0.5637    -0.0175 H       
  23 H23            0.0001     4.0358     0.0122 H       
  24 H24           -0.6541    -2.5581    -0.0063 H       
  25 H25           -2.1415    -2.1907     0.8998 H       
  26 H26           -2.1582    -2.1803    -0.8800 H       
  27 H27            4.4913     2.0047    -0.0287 H       
  28 H28            2.0015     5.4680     0.0013 H       
  29 H29           -3.5439    -1.3782     0.0276 H       
  30 H30            4.2437     4.4533    -0.0144 H       
  31 H31           -5.5302    -2.7561     0.0380 H       
  32 H32           -5.6971     1.5191     0.0745 H       
  33 H33           -7.9892    -2.8459     0.0605 H       
  34 H34           -8.1556     1.4165     0.0965 H       
  35 H35           -9.2993    -0.7626     0.0831 H       
@<TRIPOS>BOND
   1    1    9 2
   2    2    3 1
   3    2    8 1
   4    2    9 am
   5    3    7 2
   6    4    5 1
   7    4    6 2
   8    5   13 1
   9    5   29 1
  10    6    7 1
  11    6    9 1
  12    7   12 1
  13    8   10 ar
  14    8   11 ar
  15   10   14 ar
  16   10   22 1
  17   11   15 ar
  18   11   23 1
  19   12   24 1
  20   12   25 1
  21   12   26 1
  22   13   17 ar
  23   13   18 ar
  24   14   16 ar
  25   14   27 1
  26   15   16 ar
  27   15   28 1
  28   16   30 1
  29   17   19 ar
  30   17   31 1
  31   18   20 ar
  32   18   32 1
  33   19   21 ar
  34   19   33 1
  35   20   21 ar
  36   20   34 1
  37   21   35 1

#	End of record

#	Name: 5395114
#	Creating user name:	landrgr1
#	Creation time:	28. 01. 2015 13:52

#	Modifying user name:	landrgr1
#	Modification time:	28. 01. 2015 13:52

#	Program:	corina 3.48 0006  22.01.2010

@<TRIPOS>MOLECULE
5395114
  32   33    0    0    0
SMALL
NO_CHARGES


@<TRIPOS>ATOM
   1 S1            -3.5551    -2.6470     0.3467 S.2     
   2 O2            -0.0161     1.3388     0.0094 O.3     
   3 O3             0.2474     0.0611     9.3254 O.2     
   4 N4            -1.5874    -1.2008     1.3915 N.am    
   5 N5            -2.9981    -2.2666     2.9157 N.am    
   6 N6            -2.2569    -1.7302     3.9768 N.pl3   
   7 C7            -1.2082    -0.9019     0.0083 C.3     
   8 C8             0.0021    -0.0041     0.0020 C.2     
   9 C9             1.2839    -0.4117    -0.0124 C.2     
  10 C10           -1.8634    -1.4680     6.3028 C.2     
  11 C11           -2.6493    -1.9916     1.6433 C.2     
  12 C12            2.0843     0.7537    -0.0138 C.2     
  13 C13           -2.6039    -2.0038     5.2427 C.2     
  14 C14            1.2438     1.8038    -0.0001 C.2     
  15 C15           -2.2279    -1.7553     7.6367 C.2     
  16 C16           -0.7469    -0.6437     6.0401 C.2     
  17 C17           -1.5085    -1.2347     8.6626 C.2     
  18 C18           -0.0306    -0.1254     7.0694 C.2     
  19 C19           -0.3997    -0.4082     8.3983 C.2     
  20 H20           -0.9747    -1.8302    -0.5131 H       
  21 H21           -2.0351    -0.4007    -0.4949 H       
  22 H22           -1.0742    -0.8294     2.1261 H       
  23 H23            1.6343    -1.4332    -0.0207 H       
  24 H24            3.1636     0.7932    -0.0236 H       
  25 H25           -3.4548    -2.6375     5.4445 H       
  26 H26            1.5330     2.8444     0.0027 H       
  27 H27           -3.7623    -2.8358     3.0970 H       
  28 H28           -3.0788    -2.3887     7.8400 H       
  29 H29           -0.4633    -0.4265     5.0209 H       
  30 H30           -1.4926    -1.1610     3.7955 H       
  31 H31           -1.7869    -1.4541     9.6828 H       
  32 H32            0.8232     0.5049     6.8691 H       
@<TRIPOS>BOND
   1    1   11 2
   2    2    8 1
   3    2   14 1
   4    3   19 2
   5    4    7 1
   6    4   11 am
   7    4   22 1
   8    5    6 1
   9    5   11 am
  10    5   27 1
  11    6   13 1
  12    6   30 1
  13    7    8 1
  14    7   20 1
  15    7   21 1
  16    8    9 2
  17    9   12 1
  18    9   23 1
  19   10   13 2
  20   10   15 1
  21   10   16 1
  22   12   14 2
  23   12   24 1
  24   13   25 1
  25   14   26 1
  26   15   17 2
  27   15   28 1
  28   16   18 2
  29   16   29 1
  30   17   19 1
  31   17   31 1
  32   18   19 1
  33   18   32 1

#	End of record

#	Name: 5393864
#	Creating user name:	landrgr1
#	Creation time:	28. 01. 2015 13:52

#	Modifying user name:	landrgr1
#	Modification time:	28. 01. 2015 13:52

#	Program:	corina 3.48 0006  22.01.2010

@<TRIPOS>MOLECULE
5393864
  32   33    0    0    0
SMALL
NO_CHARGES


@<TRIPOS>ATOM
   1 F1             2.0652     1.3715    -2.2831 F       
   2 F2             1.2875     3.4907    -1.9321 F       
   3 F3             4.0512     3.3360    -2.3090 F       
   4 F4             3.4299     3.9919    -0.2107 F       
   5 O5             3.5715     3.5048     2.4753 O.2     
   6 N6             0.1194     1.5251    -0.0871 N.pl3   
   7 N7             0.6506     0.5833     2.3181 N.pl3   
   8 C8            -0.1612     0.1007     0.0643 C.3     
   9 C9             0.5373    -0.4651     1.2951 C.3     
  10 C10            1.3983     1.9953    -0.0922 C.2     
  11 C11            1.6808     1.4733     2.2494 C.2     
  12 C12            2.0990     2.0604     1.0704 C.2     
  13 C13            2.0339     2.4424    -1.3834 C.3     
  14 C14            2.3787     1.8250     3.4862 C.2     
  15 C15            3.4612     2.9210    -1.1104 C.3     
  16 C16            3.3264     2.8785     3.4997 C.2     
  17 C17            2.1131     1.1275     4.6733 C.2     
  18 C18            3.9807     3.1956     4.6982 C.2     
  19 C19            2.7682     1.4626     5.8221 C.2     
  20 C20            3.7019     2.4926     5.8341 C.2     
  21 H21           -1.2368    -0.0437     0.1651 H       
  22 H22            0.1890    -0.4294    -0.8214 H       
  23 H23            1.5328    -0.8135     1.0200 H       
  24 H24           -0.0429    -1.2984     1.6913 H       
  25 H25           -0.6174     2.1475    -0.1900 H       
  26 H26           -0.0005     0.6413     3.0348 H       
  27 H27            3.0343     2.6004     1.0730 H       
  28 H28            4.0428     2.1042    -0.6829 H       
  29 H29            1.3899     0.3254     4.6783 H       
  30 H30            4.7055     3.9958     4.7225 H       
  31 H31            2.5588     0.9216     6.7331 H       
  32 H32            4.2098     2.7417     6.7540 H       
@<TRIPOS>BOND
   1    1   13 1
   2    2   13 1
   3    3   15 1
   4    4   15 1
   5    5   16 2
   6    6    8 1
   7    6   10 1
   8    6   25 1
   9    7    9 1
  10    7   11 1
  11    7   26 1
  12    8    9 1
  13    8   21 1
  14    8   22 1
  15    9   23 1
  16    9   24 1
  17   10   12 2
  18   10   13 1
  19   11   12 1
  20   11   14 2
  21   12   27 1
  22   13   15 1
  23   14   16 1
  24   14   17 1
  25   15   28 1
  26   16   18 1
  27   17   19 2
  28   17   29 1
  29   18   20 2
  30   18   30 1
  31   19   20 1
  32   19   31 1
  33   20   32 1

#	End of record

#	Name: 5390095
#	Creating user name:	landrgr1
#	Creation time:	28. 01. 2015 13:52

#	Modifying user name:	landrgr1
#	Modification time:	28. 01. 2015 13:52

#	Program:	corina 3.48 0006  22.01.2010

@<TRIPOS>MOLECULE
5390095
  48   52    0    0    0
SMALL
NO_CHARGES


@<TRIPOS>ATOM
   1 N1            -0.0174     1.4621     0.0405 N.pl3   
   2 N2             2.8857    -0.2921    -0.0298 N.3     
   3 N3            -1.2952    -0.6951     0.0231 N.2     
   4 N4            -1.0264     3.4365     0.0910 N.pl3   
   5 N5            -2.3451     1.3748     0.0838 N.2     
   6 N6            -3.6112    -0.5920     0.0571 N.pl3   
   7 C7             0.0023    -0.0042     0.0161 C.3     
   8 C8             0.7584    -0.4441    -1.2340 C.3     
   9 C9             0.7936    -0.4848     1.2290 C.3     
  10 C10            2.1625     0.1648    -1.2237 C.3     
  11 C11            2.1971     0.1247     1.1987 C.3     
  12 C12            0.9794     2.4282     0.0431 C.ar    
  13 C13           -1.2337     2.0864     0.0735 C.2     
  14 C14            4.2754     0.1839    -0.0418 C.3     
  15 C15            0.3452     3.6725     0.0715 C.ar    
  16 C16           -2.3829     0.0390     0.0500 C.2     
  17 C17            2.3654     2.3625     0.0243 C.ar    
  18 C18            4.8681     0.0384     1.3361 C.ar    
  19 C19            1.1032     4.8344     0.0768 C.ar    
  20 C20            3.1108     3.5249     0.0337 C.ar    
  21 C21            2.4819     4.7577     0.0522 C.ar    
  22 C22            5.5151    -1.1308     1.6902 C.ar    
  23 C23            4.7697     1.0761     2.2440 C.ar    
  24 C24            6.0588    -1.2643     2.9541 C.ar    
  25 C25            5.3134     0.9426     3.5079 C.ar    
  26 C26            5.9558    -0.2285     3.8638 C.ar    
  27 H27            0.8343    -1.5314    -1.2488 H       
  28 H28            0.2223    -0.1057    -2.1206 H       
  29 H29            0.2831    -0.1759     2.1412 H       
  30 H30            0.8691    -1.5719     1.2057 H       
  31 H31            2.0868     1.2521    -1.2086 H       
  32 H32            2.7015    -0.1495    -2.1174 H       
  33 H33            2.7612    -0.2190     2.0658 H       
  34 H34            2.1217     1.2118     1.2220 H       
  35 H35            4.8555    -0.4064    -0.7511 H       
  36 H36            4.2977     1.2327    -0.3380 H       
  37 H37           -1.7182     4.1160     0.1141 H       
  38 H38            2.8607     1.4031     0.0027 H       
  39 H39            0.6157     5.7978     0.0999 H       
  40 H40            4.1894     3.4719     0.0195 H       
  41 H41            3.0714     5.6626     0.0564 H       
  42 H42           -3.6589    -1.5607     0.0423 H       
  43 H43           -4.4263    -0.0665     0.0768 H       
  44 H44            5.5956    -1.9400     0.9795 H       
  45 H45            4.2683     1.9913     1.9658 H       
  46 H46            6.5637    -2.1780     3.2310 H       
  47 H47            5.2368     1.7535     4.2171 H       
  48 H48            6.3802    -0.3330     4.8514 H       
@<TRIPOS>BOND
   1    1    7 1
   2    1   12 1
   3    1   13 1
   4    2   10 1
   5    2   11 1
   6    2   14 1
   7    3    7 1
   8    3   16 2
   9    4   13 1
  10    4   15 1
  11    4   37 1
  12    5   13 2
  13    5   16 1
  14    6   16 1
  15    6   42 1
  16    6   43 1
  17    7    8 1
  18    7    9 1
  19    8   10 1
  20    8   27 1
  21    8   28 1
  22    9   11 1
  23    9   29 1
  24    9   30 1
  25   10   31 1
  26   10   32 1
  27   11   33 1
  28   11   34 1
  29   12   15 ar
  30   12   17 ar
  31   14   18 1
  32   14   35 1
  33   14   36 1
  34   15   19 ar
  35   17   20 ar
  36   17   38 1
  37   18   22 ar
  38   18   23 ar
  39   19   21 ar
  40   19   39 1
  41   20   21 ar
  42   20   40 1
  43   21   41 1
  44   22   24 ar
  45   22   44 1
  46   23   25 ar
  47   23   45 1
  48   24   26 ar
  49   24   46 1
  50   25   26 ar
  51   25   47 1
  52   26   48 1

#	End of record

#	Name: 5390077
#	Creating user name:	landrgr1
#	Creation time:	28. 01. 2015 13:52

#	Modifying user name:	landrgr1
#	Modification time:	28. 01. 2015 13:52

#	Program:	corina 3.48 0006  22.01.2010

@<TRIPOS>MOLECULE
5390077
  62   66    0    0    0
SMALL
NO_CHARGES


@<TRIPOS>ATOM
   1 O1            -0.0807     0.5936     0.6069 O.3     
   2 O2             2.3840     2.9056    -9.8008 O.3     
   3 O3             6.5874    -1.1301    -2.1588 O.2     
   4 O4             6.8817    -1.0127    -7.4412 O.3     
   5 O5             7.6477    -1.5483    -4.8232 O.2     
   6 O6             0.2197     0.6223    -6.6906 O.3     
   7 N7             4.9369    -0.0214    -3.2521 N.am    
   8 N8             2.2601    -0.2976    -0.6636 N.3     
   9 C9             4.6432     0.2760    -4.6571 C.3     
  10 C10            4.1174     0.3833    -2.1072 C.3     
  11 C11            3.0818    -0.7034    -1.8116 C.3     
  12 C12            5.7584    -0.3379    -5.4714 C.2     
  13 C13            6.0763    -0.7303    -3.1848 C.2     
  14 C14            1.1086    -1.1960    -0.4961 C.3     
  15 C15            1.8169     1.0975    -0.7998 C.3     
  16 C16            3.3221    -0.3343    -5.0485 C.ar    
  17 C17            6.6252    -0.9452    -4.5509 C.2     
  18 C18            5.8962    -0.3075    -6.8458 C.2     
  19 C19            0.3149    -0.7739     0.7432 C.3     
  20 C20            1.0162     1.4966     0.4425 C.3     
  21 C21            3.3495     3.9970    -7.9776 C.3     
  22 C22            3.8303     2.5624    -8.0840 C.ar    
  23 C23            4.9694     0.4932    -7.6603 C.ar    
  24 C24            2.7390     4.2331    -9.3794 C.3     
  25 C25            3.2076     2.0064    -9.1988 C.ar    
  26 C26            4.6964     1.8239    -7.3176 C.ar    
  27 C27            2.3722     0.4324    -5.6946 C.ar    
  28 C28            3.0641    -1.6632    -4.7657 C.ar    
  29 C29            4.3514    -0.0682    -8.7845 C.ar    
  30 C30            3.4838     0.6808    -9.5418 C.ar    
  31 C31            3.7750     4.8431   -10.3257 C.3     
  32 C32            1.1562    -0.1302    -6.0552 C.ar    
  33 C33            1.8534    -2.2261    -5.1239 C.ar    
  34 C34            0.8978    -1.4619    -5.7656 C.ar    
  35 H35            4.6174     1.3545    -4.8128 H       
  36 H36            4.7559     0.5237    -1.2350 H       
  37 H37            3.6070     1.3184    -2.3381 H       
  38 H38            3.5922    -1.6385    -1.5807 H       
  39 H39            2.4434    -0.8438    -2.6839 H       
  40 H40            0.4685    -1.1353    -1.3763 H       
  41 H41            1.4609    -2.2199    -0.3714 H       
  42 H42            2.6863     1.7478    -0.8969 H       
  43 H43            1.1882     1.1949    -1.6849 H       
  44 H44            0.9384    -0.8858     1.6303 H       
  45 H45           -0.5713    -1.4013     0.8390 H       
  46 H46            0.6372     2.5113     0.3208 H       
  47 H47            1.6601     1.4507     1.3208 H       
  48 H48            2.5917     4.0974    -7.2006 H       
  49 H49            4.1834     4.6751    -7.7965 H       
  50 H50            1.8545     4.8666    -9.3134 H       
  51 H51            5.1667     2.2675    -6.4525 H       
  52 H52            2.5756     1.4692    -5.9187 H       
  53 H53            3.8099    -2.2623    -4.2644 H       
  54 H54            4.5586    -1.0923    -9.0579 H       
  55 H55            3.0113     0.2414   -10.4079 H       
  56 H56            3.3529     4.9163   -11.3280 H       
  57 H57            4.0481     5.8377    -9.9731 H       
  58 H58            4.6619     4.2101   -10.3503 H       
  59 H59            1.6543    -3.2642    -4.9019 H       
  60 H60            6.8982    -0.9293    -8.4045 H       
  61 H61           -0.0479    -1.9022    -6.0452 H       
  62 H62            0.2891     0.6046    -7.6549 H       
@<TRIPOS>BOND
   1    1   19 1
   2    1   20 1
   3    2   24 1
   4    2   25 1
   5    3   13 2
   6    4   18 1
   7    4   60 1
   8    5   17 2
   9    6   32 1
  10    6   62 1
  11    7    9 1
  12    7   10 1
  13    7   13 am
  14    8   11 1
  15    8   14 1
  16    8   15 1
  17    9   12 1
  18    9   16 1
  19    9   35 1
  20   10   11 1
  21   10   36 1
  22   10   37 1
  23   11   38 1
  24   11   39 1
  25   12   17 1
  26   12   18 2
  27   13   17 1
  28   14   19 1
  29   14   40 1
  30   14   41 1
  31   15   20 1
  32   15   42 1
  33   15   43 1
  34   16   27 ar
  35   16   28 ar
  36   18   23 1
  37   19   44 1
  38   19   45 1
  39   20   46 1
  40   20   47 1
  41   21   22 1
  42   21   24 1
  43   21   48 1
  44   21   49 1
  45   22   25 ar
  46   22   26 ar
  47   23   26 ar
  48   23   29 ar
  49   24   31 1
  50   24   50 1
  51   25   30 ar
  52   26   51 1
  53   27   32 ar
  54   27   52 1
  55   28   33 ar
  56   28   53 1
  57   29   30 ar
  58   29   54 1
  59   30   55 1
  60   31   56 1
  61   31   57 1
  62   31   58 1
  63   32   34 ar
  64   33   34 ar
  65   33   59 1
  66   34   61 1

#	End of record

#	Name: 5390065
#	Creating user name:	landrgr1
#	Creation time:	28. 01. 2015 13:52

#	Modifying user name:	landrgr1
#	Modification time:	28. 01. 2015 13:52

#	Program:	corina 3.48 0006  22.01.2010

@<TRIPOS>MOLECULE
5390065
  54   56    0    0    0
SMALL
NO_CHARGES


@<TRIPOS>ATOM
   1 S1             1.3222     2.0343     0.3627 S.o2    
   2 O2            -1.3449     2.1779     6.9205 O.3     
   3 O3            -3.8852     6.0874     7.4364 O.3     
   4 O4            -3.6636     0.9271     4.6809 O.2     
   5 O5            -5.2390     2.0765     6.8245 O.2     
   6 O6            -5.2915     4.4324     8.2878 O.3     
   7 O7             2.0374     5.2358     8.2717 O.3     
   8 O8             1.4988     0.6275     0.2670 O.2     
   9 O9             2.3936     2.9379     0.5971 O.2     
  10 N10           -2.6078     2.9357     4.7063 N.am    
  11 N11            0.6078     2.5132    -1.0525 N.am    
  12 C12           -2.7456     4.1677     5.4885 C.3     
  13 C13           -3.8732     3.9347     6.4671 C.2     
  14 C14           -1.4666     4.4521     6.2331 C.ar    
  15 C15           -3.5211     2.0459     5.1304 C.2     
  16 C16           -1.6811     2.7232     3.6819 C.ar    
  17 C17           -4.3324     2.6326     6.2310 C.2     
  18 C18           -0.8226     3.4325     6.9193 C.ar    
  19 C19           -0.9331     5.7270     6.2272 C.ar    
  20 C20           -4.3538     4.8252     7.4045 C.2     
  21 C21           -1.6500     1.5062     3.0127 C.ar    
  22 C22           -0.7928     3.7305     3.3267 C.ar    
  23 C23            0.3542     3.6948     7.6041 C.ar    
  24 C24            0.2395     5.9907     6.9084 C.ar    
  25 C25            0.1536     2.3024     1.6538 C.ar    
  26 C26            0.8842     4.9756     7.6014 C.ar    
  27 C27           -0.7331     1.2995     2.0010 C.ar    
  28 C28            0.1216     3.5171     2.3140 C.ar    
  29 C29           -4.3503     6.9360     8.5190 C.3     
  30 C30           -0.5716     1.1538     7.5491 C.3     
  31 C31           -3.6226     8.2807     8.4616 C.3     
  32 C32            2.5258     6.5779     8.2258 C.3     
  33 H33           -2.9886     5.0023     4.8308 H       
  34 H34           -1.4335     6.5183     5.6888 H       
  35 H35           -2.3420     0.7225     3.2836 H       
  36 H36           -0.8175     4.6794     3.8417 H       
  37 H37            0.8567     2.9026     8.1391 H       
  38 H38            0.6548     6.9876     6.9017 H       
  39 H39           -0.7081     0.3535     1.4806 H       
  40 H40            0.8124     4.2998     2.0374 H       
  41 H41           -5.5970     3.5170     8.2258 H       
  42 H42           -5.4233     7.0989     8.4177 H       
  43 H43           -4.1448     6.4521     9.4739 H       
  44 H44            0.4243     1.1274     7.1068 H       
  45 H45           -0.4900     1.3631     8.6157 H       
  46 H46           -1.0592     0.1898     7.4042 H       
  47 H47            0.4859     1.8764    -1.7740 H       
  48 H48            0.3112     3.4304    -1.1599 H       
  49 H49           -2.5458     8.1119     8.4740 H       
  50 H50           -3.8978     8.8040     7.5459 H       
  51 H51           -3.9058     8.8841     9.3240 H       
  52 H52            1.7812     7.2503     8.6520 H       
  53 H53            3.4497     6.6482     8.7998 H       
  54 H54            2.7190     6.8590     7.1905 H       
@<TRIPOS>BOND
   1    1    8 2
   2    1    9 2
   3    1   11 am
   4    1   25 1
   5    2   18 1
   6    2   30 1
   7    3   20 1
   8    3   29 1
   9    4   15 2
  10    5   17 2
  11    6   20 1
  12    6   41 1
  13    7   26 1
  14    7   32 1
  15   10   12 1
  16   10   15 am
  17   10   16 1
  18   11   47 1
  19   11   48 1
  20   12   13 1
  21   12   14 1
  22   12   33 1
  23   13   17 1
  24   13   20 2
  25   14   18 ar
  26   14   19 ar
  27   15   17 1
  28   16   21 ar
  29   16   22 ar
  30   18   23 ar
  31   19   24 ar
  32   19   34 1
  33   21   27 ar
  34   21   35 1
  35   22   28 ar
  36   22   36 1
  37   23   26 ar
  38   23   37 1
  39   24   26 ar
  40   24   38 1
  41   25   27 ar
  42   25   28 ar
  43   27   39 1
  44   28   40 1
  45   29   31 1
  46   29   42 1
  47   29   43 1
  48   30   44 1
  49   30   45 1
  50   30   46 1
  51   31   49 1
  52   31   50 1
  53   31   51 1
  54   32   52 1
  55   32   53 1
  56   32   54 1

#	End of record

#	Name: 5390059
#	Creating user name:	landrgr1
#	Creation time:	28. 01. 2015 13:52

#	Modifying user name:	landrgr1
#	Modification time:	28. 01. 2015 13:52

#	Program:	corina 3.48 0006  22.01.2010

@<TRIPOS>MOLECULE
5390059
  56   61    0    0    0
SMALL
NO_CHARGES


@<TRIPOS>ATOM
   1 O1             0.0089    -1.3714     2.7615 O.2     
   2 O2             2.7331     2.2097     2.7564 O.2     
   3 O3             1.0252    -0.3313    -2.1795 O.2     
   4 N4            -0.0179     1.4686     0.0101 N.3     
   5 N5             1.3290     0.4515     3.0239 N.am    
   6 N6            -0.9607    -1.3148    -1.6101 N.am    
   7 C7             0.0021    -0.0041     0.0020 C.3     
   8 C8             1.4239     1.8613    -0.0015 C.3     
   9 C9             1.1932    -0.4239     0.8708 C.3     
  10 C10            2.1360     0.8105     0.8697 C.3     
  11 C11            1.4730     3.2277     0.7059 C.3     
  12 C12           -0.5294     1.9563     1.3132 C.3     
  13 C13            0.1870     3.3005     1.5523 C.3     
  14 C14           -1.2861    -0.5729     0.5285 C.ar    
  15 C15            0.7580    -0.5292     2.3152 C.2     
  16 C16            2.1218     1.2616     2.3128 C.2     
  17 C17            0.1241    -0.5456    -1.3964 C.2     
  18 C18           -1.8074    -1.3515    -0.5001 C.ar    
  19 C19           -1.9512    -0.4572     1.7286 C.ar    
  20 C20            1.1040     0.6247     4.4611 C.3     
  21 C21           -3.0159    -2.0141    -0.2976 C.ar    
  22 C22           -3.1508    -1.1191     1.9214 C.ar    
  23 C23           -3.6791    -1.8953     0.9060 C.ar    
  24 C24            2.1358    -0.1604     5.2293 C.ar    
  25 C25           -3.8804    -0.9935     3.2340 C.3     
  26 C26            3.3345     0.4318     5.5804 C.ar    
  27 C27            1.8812    -1.4710     5.5877 C.ar    
  28 C28           -4.8414     0.1955     3.1715 C.3     
  29 C29            4.2809    -0.2883     6.2850 C.ar    
  30 C30            2.8276    -2.1911     6.2923 C.ar    
  31 C31            4.0285    -1.6006     6.6388 C.ar    
  32 H32            1.8305     1.8956    -1.0123 H       
  33 H33            1.6804    -1.3273     0.5040 H       
  34 H34            3.1363     0.5755     0.5059 H       
  35 H35            2.3513     3.2881     1.3486 H       
  36 H36            1.4867     4.0325    -0.0290 H       
  37 H37           -1.6079     2.1064     1.2637 H       
  38 H38           -0.2813     1.2496     2.1051 H       
  39 H39            0.4347     3.4146     2.6076 H       
  40 H40           -0.4393     4.1276     1.2183 H       
  41 H41           -1.1340    -1.7881    -2.4389 H       
  42 H42           -1.5362     0.1500     2.5195 H       
  43 H43            1.1865     1.6810     4.7171 H       
  44 H44            0.1078     0.2652     4.7189 H       
  45 H45           -3.4350    -2.6224    -1.0855 H       
  46 H46           -4.6158    -2.4114     1.0563 H       
  47 H47           -4.4441    -1.9066     3.4251 H       
  48 H48           -3.1599    -0.8365     4.0366 H       
  49 H49            3.5317     1.4571     5.3039 H       
  50 H50            0.9427    -1.9321     5.3175 H       
  51 H51           -4.2776     1.1086     2.9804 H       
  52 H52           -5.5619     0.0386     2.3689 H       
  53 H53           -5.3691     0.2864     4.1209 H       
  54 H54            5.2178     0.1741     6.5587 H       
  55 H55            2.6286    -3.2149     6.5726 H       
  56 H56            4.7681    -2.1633     7.1890 H       
@<TRIPOS>BOND
   1    1   15 2
   2    2   16 2
   3    3   17 2
   4    4    7 1
   5    4    8 1
   6    4   12 1
   7    5   15 am
   8    5   16 am
   9    5   20 1
  10    6   17 am
  11    6   18 1
  12    6   41 1
  13    7    9 1
  14    7   14 1
  15    7   17 1
  16    8   10 1
  17    8   11 1
  18    8   32 1
  19    9   10 1
  20    9   15 1
  21    9   33 1
  22   10   16 1
  23   10   34 1
  24   11   13 1
  25   11   35 1
  26   11   36 1
  27   12   13 1
  28   12   37 1
  29   12   38 1
  30   13   39 1
  31   13   40 1
  32   14   18 ar
  33   14   19 ar
  34   18   21 ar
  35   19   22 ar
  36   19   42 1
  37   20   24 1
  38   20   43 1
  39   20   44 1
  40   21   23 ar
  41   21   45 1
  42   22   23 ar
  43   22   25 1
  44   23   46 1
  45   24   26 ar
  46   24   27 ar
  47   25   28 1
  48   25   47 1
  49   25   48 1
  50   26   29 ar
  51   26   49 1
  52   27   30 ar
  53   27   50 1
  54   28   51 1
  55   28   52 1
  56   28   53 1
  57   29   31 ar
  58   29   54 1
  59   30   31 ar
  60   30   55 1
  61   31   56 1

#	End of record

#	Name: 5390046
#	Creating user name:	landrgr1
#	Creation time:	28. 01. 2015 13:52

#	Modifying user name:	landrgr1
#	Modification time:	28. 01. 2015 13:52

#	Program:	corina 3.48 0006  22.01.2010

@<TRIPOS>MOLECULE
5390046
  58   62    0    0    0
SMALL
NO_CHARGES


@<TRIPOS>ATOM
   1 Cl1            3.8852    -1.8318    -7.2085 Cl      
   2 O2             1.8796    -6.1402     1.2728 O.2     
   3 O3            -2.5642    -3.2874    -2.2026 O.3     
   4 O4            -2.9609    -0.5854    -1.8430 O.3     
   5 O5             2.5560    -1.1960    -1.6615 O.2     
   6 N6             1.5823    -3.9088     0.9740 N.am    
   7 N7             3.0348    -5.8764    -1.7903 N.pl3   
   8 N8             3.3144    -5.0534    -2.8888 N.pl3   
   9 N9            -2.5752    -2.6763     1.7840 N.ar    
  10 C10            1.8455    -2.9825    -0.1334 C.3     
  11 C11            2.4371    -3.8128    -1.2457 C.2     
  12 C12            2.4980    -5.0969    -0.7933 C.2     
  13 C13            1.9625    -5.1398     0.5888 C.2     
  14 C14            2.9466    -3.7789    -2.5564 C.2     
  15 C15            0.5596    -2.3439    -0.5913 C.ar    
  16 C16            1.0106    -3.5532     2.2751 C.3     
  17 C17            3.0592    -2.6335    -3.3810 C.2     
  18 C18           -0.4184    -3.1155    -1.1907 C.ar    
  19 C19            0.3583    -0.9887    -0.4059 C.ar    
  20 C20           -0.4907    -3.6685     2.2126 C.ar    
  21 C21           -1.6013    -2.5298    -1.6123 C.ar    
  22 C22            3.3809    -2.7662    -4.7421 C.2     
  23 C23            2.8425    -1.3369    -2.8437 C.2     
  24 C24           -0.8196    -0.3982    -0.8242 C.ar    
  25 C25           -1.8016    -1.1648    -1.4309 C.ar    
  26 C26           -1.1167    -4.8650     2.5280 C.ar    
  27 C27           -1.2608    -2.5832     1.8406 C.ar    
  28 C28            3.4866    -1.6570    -5.5280 C.2     
  29 C29            2.9602    -0.2191    -3.6837 C.2     
  30 C30            3.2791    -0.3853    -4.9989 C.2     
  31 C31           -2.4999    -4.9247     2.4571 C.ar    
  32 C32            3.4034     0.8217    -5.8925 C.3     
  33 C33           -3.2041    -3.7976     2.0769 C.ar    
  34 C34           -2.2443    -4.6555    -2.4634 C.3     
  35 C35           -3.0972     0.8201    -1.6244 C.3     
  36 H36            2.5544    -2.2160     0.1798 H       
  37 H37            1.3955    -4.2297     3.0382 H       
  38 H38            1.2862    -2.5287     2.5253 H       
  39 H39            3.1928    -6.8322    -1.7414 H       
  40 H40            3.6994    -5.3365    -3.7329 H       
  41 H41           -0.2603    -4.1746    -1.3307 H       
  42 H42            1.1227    -0.3902     0.0671 H       
  43 H43            3.5448    -3.7461    -5.1656 H       
  44 H44           -0.9746     0.6606    -0.6779 H       
  45 H45           -0.5404    -5.7298     2.8217 H       
  46 H46           -0.7809    -1.6479     1.5931 H       
  47 H47            2.7978     0.7728    -3.2886 H       
  48 H48           -3.0207    -5.8402     2.6957 H       
  49 H49            2.4341     1.0454    -6.3380 H       
  50 H50            3.7389     1.6761    -5.3046 H       
  51 H51            4.1272     0.6168    -6.6814 H       
  52 H52           -4.2818    -3.8358     2.0192 H       
  53 H53           -1.3319    -4.7083    -3.0574 H       
  54 H54           -2.0943    -5.1799    -1.5197 H       
  55 H55           -3.0626    -5.1217    -3.0122 H       
  56 H56           -4.0651     1.1538    -1.9984 H       
  57 H57           -3.0281     1.0302    -0.5570 H       
  58 H58           -2.3024     1.3485    -2.1509 H       
@<TRIPOS>BOND
   1    1   28 1
   2    2   13 2
   3    3   21 1
   4    3   34 1
   5    4   25 1
   6    4   35 1
   7    5   23 2
   8    6   10 1
   9    6   13 am
  10    6   16 1
  11    7    8 1
  12    7   12 1
  13    7   39 1
  14    8   14 1
  15    8   40 1
  16    9   27 ar
  17    9   33 ar
  18   10   11 1
  19   10   15 1
  20   10   36 1
  21   11   12 2
  22   11   14 1
  23   12   13 1
  24   14   17 2
  25   15   18 ar
  26   15   19 ar
  27   16   20 1
  28   16   37 1
  29   16   38 1
  30   17   22 1
  31   17   23 1
  32   18   21 ar
  33   18   41 1
  34   19   24 ar
  35   19   42 1
  36   20   26 ar
  37   20   27 ar
  38   21   25 ar
  39   22   28 2
  40   22   43 1
  41   23   29 1
  42   24   25 ar
  43   24   44 1
  44   26   31 ar
  45   26   45 1
  46   27   46 1
  47   28   30 1
  48   29   30 2
  49   29   47 1
  50   30   32 1
  51   31   33 ar
  52   31   48 1
  53   32   49 1
  54   32   50 1
  55   32   51 1
  56   33   52 1
  57   34   53 1
  58   34   54 1
  59   34   55 1
  60   35   56 1
  61   35   57 1
  62   35   58 1

#	End of record

#	Name: 5389951
#	Creating user name:	landrgr1
#	Creation time:	28. 01. 2015 13:52

#	Modifying user name:	landrgr1
#	Modification time:	28. 01. 2015 13:52

#	Program:	corina 3.48 0006  22.01.2010

@<TRIPOS>MOLECULE
5389951
  62   65    0    0    0
SMALL
NO_CHARGES


@<TRIPOS>ATOM
   1 O1            -0.0162     1.3458     0.0094 O.3     
   2 O2            -3.2628    -3.5347     0.0060 O.2     
   3 O3            -0.4310    -2.9200    -0.0105 O.2     
   4 O4             5.4054    -2.6581    -0.9477 O.3     
   5 O5             4.5374    -1.4707    -2.6133 O.2     
   6 N6            -3.5055    -1.2785     0.0282 N.am    
   7 N7             3.0066    -1.9585     0.6171 N.pl3   
   8 N8            -7.5182    -1.0262    -2.7565 N.pl3   
   9 N9            -3.2196     2.2359    -3.4294 N.ar    
  10 N10           -8.1801    -0.2855    -4.6723 N.2     
  11 C11           -2.5844    -0.1383     0.0260 C.3     
  12 C12           -1.1864    -0.7120     0.0096 C.2     
  13 C13           -4.9679    -1.1919     0.0424 C.3     
  14 C14           -2.7907    -2.4161     0.0091 C.2     
  15 C15           -2.8104     0.7055    -1.2020 C.ar    
  16 C16           -5.4905    -1.1535    -1.3950 C.3     
  17 C17           -1.3360    -2.1046     0.0030 C.2     
  18 C18            0.0021    -0.0041     0.0020 C.2     
  19 C19            1.2844    -0.7214    -0.0141 C.2     
  20 C20           -7.0178    -1.0629    -1.3801 C.3     
  21 C21            2.1982    -0.7869    -1.0916 C.2     
  22 C22            1.8277    -1.4626     1.0239 C.2     
  23 C23           -2.7726     2.0896    -1.1289 C.ar    
  24 C24           -3.0607     0.1163    -2.4318 C.ar    
  25 C25            3.2480    -1.5530    -0.6784 C.2     
  26 C26            2.0410    -0.1345    -2.4410 C.3     
  27 C27            1.2011    -1.6755     2.3778 C.3     
  28 C28           -2.9841     2.8306    -2.2762 C.ar    
  29 C29           -3.2628     0.9223    -3.5361 C.ar    
  30 C30           -7.8609    -2.1056    -3.5253 C.2     
  31 C31            4.4325    -1.8877    -1.4759 C.2     
  32 C32           -7.7332     0.0793    -3.5017 C.2     
  33 C33           -8.2684    -1.6232    -4.7147 C.2     
  34 C34            6.5486    -2.9490    -1.7943 C.3     
  35 C35            7.5393    -3.8286    -1.0291 C.3     
  36 H36           -2.7311     0.4619     0.9240 H       
  37 H37           -5.3784    -2.0617     0.5552 H       
  38 H38           -5.2730    -0.2849     0.5643 H       
  39 H39           -5.0800    -0.2836    -1.9078 H       
  40 H40           -5.1854    -2.0604    -1.9169 H       
  41 H41           -7.3229    -0.1560    -0.8582 H       
  42 H42           -7.4283    -1.9328    -0.8674 H       
  43 H43           -2.5799     2.5824    -0.1874 H       
  44 H44           -3.0970    -0.9590    -2.5257 H       
  45 H45            3.5976    -2.5116     1.1517 H       
  46 H46            2.4778     0.8638    -2.4150 H       
  47 H47            2.5497    -0.7341    -3.1959 H       
  48 H48            0.9819    -0.0615    -2.6881 H       
  49 H49            1.5248    -0.8860     3.0562 H       
  50 H50            0.1155    -1.6511     2.2837 H       
  51 H51            1.5099    -2.6433     2.7730 H       
  52 H52            0.8617     1.7511     0.0032 H       
  53 H53           -2.9559     3.9091    -2.2277 H       
  54 H54           -3.4583     0.4711    -4.4977 H       
  55 H55           -7.8133    -3.1445    -3.2340 H       
  56 H56           -7.5639     1.0969    -3.1818 H       
  57 H57           -8.6073    -2.2105    -5.5553 H       
  58 H58            6.2137    -3.4729    -2.6896 H       
  59 H59            7.0358    -2.0167    -2.0798 H       
  60 H60            7.8742    -3.3047    -0.1339 H       
  61 H61            7.0521    -4.7609    -0.7436 H       
  62 H62            8.3975    -4.0470    -1.6647 H       
@<TRIPOS>BOND
   1    1   18 1
   2    1   52 1
   3    2   14 2
   4    3   17 2
   5    4   31 1
   6    4   34 1
   7    5   31 2
   8    6   11 1
   9    6   13 1
  10    6   14 am
  11    7   22 1
  12    7   25 1
  13    7   45 1
  14    8   20 1
  15    8   30 1
  16    8   32 1
  17    9   28 ar
  18    9   29 ar
  19   10   32 2
  20   10   33 1
  21   11   12 1
  22   11   15 1
  23   11   36 1
  24   12   17 1
  25   12   18 2
  26   13   16 1
  27   13   37 1
  28   13   38 1
  29   14   17 1
  30   15   23 ar
  31   15   24 ar
  32   16   20 1
  33   16   39 1
  34   16   40 1
  35   18   19 1
  36   19   21 1
  37   19   22 2
  38   20   41 1
  39   20   42 1
  40   21   25 2
  41   21   26 1
  42   22   27 1
  43   23   28 ar
  44   23   43 1
  45   24   29 ar
  46   24   44 1
  47   25   31 1
  48   26   46 1
  49   26   47 1
  50   26   48 1
  51   27   49 1
  52   27   50 1
  53   27   51 1
  54   28   53 1
  55   29   54 1
  56   30   33 2
  57   30   55 1
  58   32   56 1
  59   33   57 1
  60   34   35 1
  61   34   58 1
  62   34   59 1
  63   35   60 1
  64   35   61 1
  65   35   62 1

#	End of record

#	Name: 5389921
#	Creating user name:	landrgr1
#	Creation time:	28. 01. 2015 13:52

#	Modifying user name:	landrgr1
#	Modification time:	28. 01. 2015 13:52

#	Program:	corina 3.48 0006  22.01.2010

@<TRIPOS>MOLECULE
5389921
  61   63    0    0    0
SMALL
NO_CHARGES


@<TRIPOS>ATOM
   1 S1            -0.7658     1.9757    -0.3124 S.o2    
   2 O2            -3.9327     2.5200     5.6603 O.3     
   3 O3            -2.7916     7.0709     8.1075 O.2     
   4 O4            -3.8247     4.3916     7.7134 O.2     
   5 O5            -3.3755     9.3428     6.1785 O.3     
   6 O6             0.4315     2.7309    -0.4368 O.2     
   7 O7            -1.8308     2.0473    -1.2504 O.2     
   8 N8            -1.9884     6.8094     6.0015 N.am    
   9 N9            -0.3103     0.3851    -0.2425 N.am    
  10 C10           -2.0366     5.7414     4.9989 C.3     
  11 C11           -2.8183     4.6042     5.6149 C.2     
  12 C12           -2.7326     6.2320     3.7555 C.ar    
  13 C13           -1.3282     8.1062     5.8320 C.3     
  14 C14           -2.6523     6.4095     7.0990 C.2     
  15 C15           -3.1825     5.0329     6.9018 C.2     
  16 C16           -3.1146     3.3900     5.0308 C.2     
  17 C17           -2.3207     9.1106     5.2428 C.3     
  18 C18           -2.5383     3.0428     3.7199 C.ar    
  19 C19           -2.1438     6.0534     2.5177 C.ar    
  20 C20           -3.9625     6.8556     3.8523 C.ar    
  21 C21           -1.4549     2.3902     1.2554 C.ar    
  22 C22           -1.1690     3.2077     3.4882 C.ar    
  23 C23           -3.3568     2.5414     2.7028 C.ar    
  24 C24           -0.6372     2.8806     2.2589 C.ar    
  25 C25           -2.8101     2.2188     1.4789 C.ar    
  26 C26           -1.2572    -0.6655    -0.6246 C.3     
  27 C27            1.0396     0.0285     0.2013 C.3     
  28 C28           -2.7822     6.5034     1.3772 C.ar    
  29 C29           -4.6010     7.3056     2.7118 C.ar    
  30 C30           -4.0097     7.1317     1.4745 C.ar    
  31 C31           -1.0341    -1.0448    -2.0900 C.3     
  32 C32            1.0167    -0.2912     1.6974 C.3     
  33 C33           -4.3620    10.2712     5.7236 C.3     
  34 H34           -1.0265     5.4115     4.7561 H       
  35 H35           -0.9792     8.4655     6.8001 H       
  36 H36           -0.4790     7.9962     5.1576 H       
  37 H37           -2.7367     8.7105     4.3182 H       
  38 H38           -1.8071    10.0490     5.0340 H       
  39 H39           -1.1848     5.5625     2.4417 H       
  40 H40           -4.4248     6.9909     4.8190 H       
  41 H41           -0.5299     3.5906     4.2701 H       
  42 H42           -4.4143     2.4068     2.8758 H       
  43 H43            0.4193     3.0113     2.0771 H       
  44 H44           -3.4417     1.8360     0.6909 H       
  45 H45           -1.1016    -1.5414     0.0052 H       
  46 H46           -2.2762    -0.3009    -0.4947 H       
  47 H47            1.3850    -0.8450    -0.3516 H       
  48 H48            1.7148     0.8645     0.0187 H       
  49 H49           -2.3218     6.3645     0.4101 H       
  50 H50           -5.5621     7.7924     2.7874 H       
  51 H51           -4.5083     7.4836     0.5834 H       
  52 H52           -4.0811     1.6974     5.1740 H       
  53 H53           -0.0151    -1.4093    -2.2199 H       
  54 H54           -1.7386    -1.8264    -2.3742 H       
  55 H55           -1.1897    -0.1688    -2.7198 H       
  56 H56            0.3415    -1.1271     1.8800 H       
  57 H57            2.0210    -0.5565     2.0276 H       
  58 H58            0.6713     0.5824     2.2503 H       
  59 H59           -4.8204     9.8952     4.8090 H       
  60 H60           -5.1273    10.3928     6.4902 H       
  61 H61           -3.8908    11.2338     5.5248 H       
@<TRIPOS>BOND
   1    1    6 2
   2    1    7 2
   3    1    9 am
   4    1   21 1
   5    2   16 1
   6    2   52 1
   7    3   14 2
   8    4   15 2
   9    5   17 1
  10    5   33 1
  11    8   10 1
  12    8   13 1
  13    8   14 am
  14    9   26 1
  15    9   27 1
  16   10   11 1
  17   10   12 1
  18   10   34 1
  19   11   15 1
  20   11   16 2
  21   12   19 ar
  22   12   20 ar
  23   13   17 1
  24   13   35 1
  25   13   36 1
  26   14   15 1
  27   16   18 1
  28   17   37 1
  29   17   38 1
  30   18   22 ar
  31   18   23 ar
  32   19   28 ar
  33   19   39 1
  34   20   29 ar
  35   20   40 1
  36   21   24 ar
  37   21   25 ar
  38   22   24 ar
  39   22   41 1
  40   23   25 ar
  41   23   42 1
  42   24   43 1
  43   25   44 1
  44   26   31 1
  45   26   45 1
  46   26   46 1
  47   27   32 1
  48   27   47 1
  49   27   48 1
  50   28   30 ar
  51   28   49 1
  52   29   30 ar
  53   29   50 1
  54   30   51 1
  55   31   53 1
  56   31   54 1
  57   31   55 1
  58   32   56 1
  59   32   57 1
  60   32   58 1
  61   33   59 1
  62   33   60 1
  63   33   61 1

#	End of record

#	Name: 5389885
#	Creating user name:	landrgr1
#	Creation time:	28. 01. 2015 13:52

#	Modifying user name:	landrgr1
#	Modification time:	28. 01. 2015 13:52

#	Program:	corina 3.48 0006  22.01.2010

@<TRIPOS>MOLECULE
5389885
  48   51    0    0    0
SMALL
NO_CHARGES


@<TRIPOS>ATOM
   1 S1            -0.9784     1.8297    -0.2923 S.3     
   2 O2            -4.1359    -2.4716     3.1180 O.3     
   3 O3            -0.7589    -3.0334     1.4819 O.2     
   4 O4            -0.8986    -5.2853     3.1816 O.3     
   5 O5            -2.9092    -4.8871     2.3555 O.2     
   6 N6            -2.1145    -1.2037     1.3009 N.am    
   7 C7            -3.2232    -1.3682     3.3640 C.3     
   8 C8            -1.8344    -2.1039     3.4357 C.3     
   9 C9            -2.2544    -3.4325     4.0897 C.3     
  10 C10           -3.7766    -3.1933     4.3517 C.3     
  11 C11           -3.0278    -0.4531     2.1959 C.3     
  12 C12           -3.5566    -0.9212     4.7422 C.2     
  13 C13           -1.4864    -2.1989     1.9771 C.2     
  14 C14           -3.8792    -2.0563     5.3748 C.2     
  15 C15           -2.0451    -4.5881     3.1453 C.2     
  16 C16           -1.9169    -0.9108    -0.1208 C.3     
  17 C17           -0.7930     0.0807    -0.2780 C.2     
  18 C18           -0.7660    -6.3852     2.2431 C.3     
  19 C19            0.5962    -7.0557     2.4322 C.3     
  20 C20            0.4945    -0.2339    -0.4283 C.2     
  21 C21            0.7359    -8.2147     1.4433 C.3     
  22 C22            1.3484     0.8483    -0.5551 C.2     
  23 C23            0.7543     2.0416    -0.5079 C.2     
  24 C24            0.7491    -7.6673     0.0146 C.3     
  25 C25            2.0429    -8.9623     1.7151 C.3     
  26 H26           -1.0902    -1.5637     4.0209 H       
  27 H27           -1.7184    -3.5933     5.0251 H       
  28 H28           -4.3612    -4.0871     4.5697 H       
  29 H29           -2.5668     0.4814     2.5156 H       
  30 H30           -3.9781    -0.2608     1.6980 H       
  31 H31           -3.5414     0.0829     5.1397 H       
  32 H32           -4.1598    -2.1529     6.4132 H       
  33 H33           -1.6668    -1.8304    -0.6499 H       
  34 H34           -2.8329    -0.4905    -0.5360 H       
  35 H35           -1.5573    -7.1132     2.4223 H       
  36 H36           -0.8457    -6.0054     1.2245 H       
  37 H37            1.3874    -6.3277     2.2530 H       
  38 H38            0.6759    -7.4355     3.4508 H       
  39 H39            0.8444    -1.2554    -0.4490 H       
  40 H40           -0.1051    -8.8978     1.5629 H       
  41 H41            2.4149     0.7349    -0.6824 H       
  42 H42            1.2598     2.9924    -0.5899 H       
  43 H43            1.5900    -6.9843    -0.1050 H       
  44 H44            0.8486    -8.4931    -0.6899 H       
  45 H45           -0.1820    -7.1347    -0.1790 H       
  46 H46            2.0335    -9.3523     2.7329 H       
  47 H47            2.1424    -9.7880     1.0105 H       
  48 H48            2.8838    -8.2792     1.5955 H       
@<TRIPOS>BOND
   1    1   17 1
   2    1   23 1
   3    2    7 1
   4    2   10 1
   5    3   13 2
   6    4   15 1
   7    4   18 1
   8    5   15 2
   9    6   11 1
  10    6   13 am
  11    6   16 1
  12    7    8 1
  13    7   11 1
  14    7   12 1
  15    8    9 1
  16    8   13 1
  17    8   26 1
  18    9   10 1
  19    9   15 1
  20    9   27 1
  21   10   14 1
  22   10   28 1
  23   11   29 1
  24   11   30 1
  25   12   14 2
  26   12   31 1
  27   14   32 1
  28   16   17 1
  29   16   33 1
  30   16   34 1
  31   17   20 2
  32   18   19 1
  33   18   35 1
  34   18   36 1
  35   19   21 1
  36   19   37 1
  37   19   38 1
  38   20   22 1
  39   20   39 1
  40   21   24 1
  41   21   25 1
  42   21   40 1
  43   22   23 2
  44   22   41 1
  45   23   42 1
  46   24   43 1
  47   24   44 1
  48   24   45 1
  49   25   46 1
  50   25   47 1
  51   25   48 1

#	End of record

#	Name: 5389870
#	Creating user name:	landrgr1
#	Creation time:	28. 01. 2015 13:52

#	Modifying user name:	landrgr1
#	Modification time:	28. 01. 2015 13:52

#	Program:	corina 3.48 0006  22.01.2010

@<TRIPOS>MOLECULE
5389870
  58   62    0    0    0
SMALL
NO_CHARGES


@<TRIPOS>ATOM
   1 O1            -0.0173     1.4259     0.0099 O.3     
   2 O2             6.1681    -1.7059    -2.6477 O.2     
   3 O3             5.3871     0.6618    -7.9580 O.3     
   4 O4             7.2748    -2.1130    -5.2913 O.2     
   5 N5             4.9405    -0.0948    -3.6717 N.am    
   6 N6             2.1015     0.0829    -1.2528 N.3     
   7 N7             6.7557    -2.1104    -8.7659 N.pl3   
   8 N8             8.9251    -1.9897    -8.4617 N.2     
   9 N9             0.8976    -0.1484    -6.5081 N.ar    
  10 C10            4.8380     0.4095    -5.0446 C.3     
  11 C11            4.1715     0.3931    -2.5241 C.3     
  12 C12            2.8725    -0.4063    -2.4036 C.3     
  13 C13            5.8158    -0.3930    -5.8714 C.2     
  14 C14            0.7485    -0.4921    -1.2424 C.3     
  15 C15            2.0433     1.5519    -1.2438 C.3     
  16 C16            5.8517    -1.0821    -3.6404 C.2     
  17 C17            3.4375     0.2113    -5.5645 C.ar    
  18 C18            6.4230    -1.2914    -4.9949 C.2     
  19 C19            0.0021    -0.0041     0.0020 C.3     
  20 C20            1.2838     2.0194     0.0006 C.3     
  21 C21            6.0608    -0.2619    -7.2357 C.2     
  22 C22            7.0108    -1.0918    -7.8638 C.2     
  23 C23            2.8224     1.1854    -6.3360 C.ar    
  24 C24            2.7336    -0.9496    -5.2830 C.ar    
  25 C25            8.3929    -1.0506    -7.7008 C.2     
  26 C26            7.9638    -2.6442    -9.1149 C.2     
  27 C27            1.5372     0.9684    -6.7956 C.ar    
  28 C28            1.4513    -1.0962    -5.7773 C.ar    
  29 C29            5.6028    -2.5961    -9.2976 C.2     
  30 C30            9.1501    -0.0996    -6.8102 C.3     
  31 C31            8.0127    -3.7100   -10.0291 C.2     
  32 C32            5.6289    -3.6232   -10.1787 C.2     
  33 C33            6.8510    -4.1956   -10.5545 C.2     
  34 H34            5.1023     1.4665    -5.0751 H       
  35 H35            4.7593     0.2705    -1.6143 H       
  36 H36            3.9371     1.4481    -2.6658 H       
  37 H37            3.1070    -1.4613    -2.2618 H       
  38 H38            2.2848    -0.2837    -3.3133 H       
  39 H39            0.2115    -0.1755    -2.1365 H       
  40 H40            0.8155    -1.5799    -1.2234 H       
  41 H41            3.0554     1.9561    -1.2258 H       
  42 H42            1.5270     1.9012    -2.1379 H       
  43 H43            0.5095    -0.3661     0.8962 H       
  44 H44           -1.0202    -0.3818    -0.0153 H       
  45 H45            1.1886     3.1051    -0.0176 H       
  46 H46            1.8285     1.7162     0.8948 H       
  47 H47            3.3412     2.1020    -6.5751 H       
  48 H48            3.1817    -1.7295    -4.6854 H       
  49 H49            5.6247     0.6781    -8.8952 H       
  50 H50            1.0512     1.7221    -7.3974 H       
  51 H51            0.8963    -1.9974    -5.5626 H       
  52 H52            4.6571    -2.1584    -9.0141 H       
  53 H53            9.4043     0.7995    -7.3715 H       
  54 H54            8.5300     0.1691    -5.9550 H       
  55 H55           10.0639    -0.5796    -6.4599 H       
  56 H56            8.9613    -4.1408   -10.3136 H       
  57 H57            4.7062    -4.0010   -10.5939 H       
  58 H58            6.8738    -5.0143   -11.2586 H       
@<TRIPOS>BOND
   1    1   19 1
   2    1   20 1
   3    2   16 2
   4    3   21 1
   5    3   49 1
   6    4   18 2
   7    5   10 1
   8    5   11 1
   9    5   16 am
  10    6   12 1
  11    6   14 1
  12    6   15 1
  13    7   22 1
  14    7   26 1
  15    7   29 1
  16    8   25 1
  17    8   26 2
  18    9   27 ar
  19    9   28 ar
  20   10   13 1
  21   10   17 1
  22   10   34 1
  23   11   12 1
  24   11   35 1
  25   11   36 1
  26   12   37 1
  27   12   38 1
  28   13   18 1
  29   13   21 2
  30   14   19 1
  31   14   39 1
  32   14   40 1
  33   15   20 1
  34   15   41 1
  35   15   42 1
  36   16   18 1
  37   17   23 ar
  38   17   24 ar
  39   19   43 1
  40   19   44 1
  41   20   45 1
  42   20   46 1
  43   21   22 1
  44   22   25 2
  45   23   27 ar
  46   23   47 1
  47   24   28 ar
  48   24   48 1
  49   25   30 1
  50   26   31 1
  51   27   50 1
  52   28   51 1
  53   29   32 2
  54   29   52 1
  55   30   53 1
  56   30   54 1
  57   30   55 1
  58   31   33 2
  59   31   56 1
  60   32   33 1
  61   32   57 1
  62   33   58 1

#	End of record

#	Name: 5389857
#	Creating user name:	landrgr1
#	Creation time:	28. 01. 2015 13:52

#	Modifying user name:	landrgr1
#	Modification time:	28. 01. 2015 13:52

#	Program:	corina 3.48 0006  22.01.2010

@<TRIPOS>MOLECULE
5389857
  40   44    0    0    0
SMALL
NO_CHARGES


@<TRIPOS>ATOM
   1 N1             0.0686     1.4600     0.0627 N.pl3   
   2 N2             1.0795     3.4266     0.1163 N.pl3   
   3 N3             1.2462    -0.7784    -0.0693 N.2     
   4 N4            -2.1218    -1.3239     3.4265 N.ar    
   5 C5             0.0021    -0.0041     0.0020 C.3     
   6 C6             1.2750     2.0829     0.0523 C.2     
   7 C7            -0.9249     2.4277     0.1402 C.ar    
   8 C8             2.4607     1.3209    -0.0170 C.2     
   9 C9            -0.7530    -0.4730     1.2190 C.ar    
  10 C10           -0.2862     3.6698     0.1712 C.ar    
  11 C11           -0.8399    -0.3749    -1.2205 C.3     
  12 C12            2.4110    -0.1417    -0.0781 C.2     
  13 C13           -2.3106     2.3617     0.1871 C.ar    
  14 C14           -1.0414     4.8322     0.2456 C.ar    
  15 C15            3.7142     1.9546    -0.0283 C.2     
  16 C16           -1.4366    -1.6792     1.2089 C.ar    
  17 C17           -0.7802     0.2913     2.3755 C.ar    
  18 C18            3.6231    -0.8601    -0.1453 C.2     
  19 C19           -3.0517     3.5238     0.2640 C.ar    
  20 C20           -2.4191     4.7555     0.2872 C.ar    
  21 C21            4.8498     1.2045    -0.0952 C.2     
  22 C22            4.8047    -0.1851    -0.1524 C.2     
  23 C23           -2.1176    -2.0768     2.3439 C.ar    
  24 C24           -1.4829    -0.1712     3.4720 C.ar    
  25 H25           -0.3696     0.0229    -2.1198 H       
  26 H26           -0.9109    -1.4599    -1.2972 H       
  27 H27           -1.8390     0.0481    -1.1154 H       
  28 H28            1.7764     4.1013     0.1243 H       
  29 H29           -2.8079     1.4033     0.1630 H       
  30 H30           -0.5521     5.7946     0.2713 H       
  31 H31            3.7777     3.0319     0.0155 H       
  32 H32           -1.4366    -2.3004     0.3254 H       
  33 H33           -0.2586     1.2360     2.4190 H       
  34 H34            3.6134    -1.9391    -0.1906 H       
  35 H35           -4.1299     3.4725     0.3001 H       
  36 H36           -3.0061     5.6601     0.3455 H       
  37 H37            5.8089     1.7009    -0.1036 H       
  38 H38            5.7293    -0.7409    -0.2040 H       
  39 H39           -2.6523    -3.0152     2.3443 H       
  40 H40           -1.5090     0.4181     4.3766 H       
@<TRIPOS>BOND
   1    1    5 1
   2    1    6 1
   3    1    7 1
   4    2    6 1
   5    2   10 1
   6    2   28 1
   7    3    5 1
   8    3   12 2
   9    4   23 ar
  10    4   24 ar
  11    5    9 1
  12    5   11 1
  13    6    8 2
  14    7   10 ar
  15    7   13 ar
  16    8   12 1
  17    8   15 1
  18    9   16 ar
  19    9   17 ar
  20   10   14 ar
  21   11   25 1
  22   11   26 1
  23   11   27 1
  24   12   18 1
  25   13   19 ar
  26   13   29 1
  27   14   20 ar
  28   14   30 1
  29   15   21 2
  30   15   31 1
  31   16   23 ar
  32   16   32 1
  33   17   24 ar
  34   17   33 1
  35   18   22 2
  36   18   34 1
  37   19   20 ar
  38   19   35 1
  39   20   36 1
  40   21   22 1
  41   21   37 1
  42   22   38 1
  43   23   39 1
  44   24   40 1

#	End of record

#	Name: 5389808
#	Creating user name:	landrgr1
#	Creation time:	28. 01. 2015 13:52

#	Modifying user name:	landrgr1
#	Modification time:	28. 01. 2015 13:52

#	Program:	corina 3.48 0006  22.01.2010

@<TRIPOS>MOLECULE
5389808
  49   52    0    0    0
SMALL
NO_CHARGES


@<TRIPOS>ATOM
   1 O1             0.1793     1.9364     0.5595 O.3     
   2 O2             5.3571    -0.6541    -1.0689 O.3     
   3 O3             3.4204     3.1949    -3.0722 O.3     
   4 O4             8.6372    -1.4686     0.1493 O.3     
   5 O5             8.9289     1.1105    -0.7524 O.2     
   6 O6            12.9476    -3.4029    -0.3939 O.3     
   7 N7             2.2557     0.8009    -0.9527 N.3     
   8 C8             0.8714     0.3304    -1.1064 C.3     
   9 C9             2.2845     2.2249    -0.5887 C.3     
  10 C10            3.0344     0.5537    -2.1736 C.3     
  11 C11            0.1140     0.5523     0.2054 C.3     
  12 C12            1.5130     2.4278     0.7180 C.3     
  13 C13            4.3616     1.2606    -2.0746 C.ar    
  14 C14            5.4576     0.6112    -1.5236 C.ar    
  15 C15            4.4927     2.5603    -2.5334 C.ar    
  16 C16            6.6875     1.2875    -1.4404 C.ar    
  17 C17            5.7154     3.2232    -2.4460 C.ar    
  18 C18            6.8032     2.5979    -1.9071 C.ar    
  19 C19            7.8363     0.5779    -0.8518 C.2     
  20 C20            7.6179    -0.7561    -0.4041 C.2     
  21 C21            6.3951    -1.3084    -0.5316 C.2     
  22 C22            9.6796    -1.8166    -0.6497 C.ar    
  23 C23           10.7932    -2.4393    -0.1059 C.ar    
  24 C24            9.6285    -1.5545    -2.0116 C.ar    
  25 C25           11.8549    -2.7930    -0.9238 C.ar    
  26 C26           10.6884    -1.9082    -2.8246 C.ar    
  27 C27           11.8013    -2.5234    -2.2843 C.ar    
  28 C28           14.0040    -3.7391    -1.2956 C.3     
  29 H29            0.3843     0.8877    -1.9066 H       
  30 H30            0.8730    -0.7319    -1.3506 H       
  31 H31            3.3177     2.5456    -0.4549 H       
  32 H32            1.8201     2.8125    -1.3806 H       
  33 H33            3.2009    -0.5174    -2.2877 H       
  34 H34            2.4857     0.9301    -3.0369 H       
  35 H35            0.5689    -0.0470     0.9942 H       
  36 H36           -0.9278     0.2578     0.0786 H       
  37 H37            1.4830     3.4898     0.9618 H       
  38 H38            2.0085     1.8831     1.5216 H       
  39 H39            5.8034     4.2372    -2.8071 H       
  40 H40            7.7489     3.1153    -1.8418 H       
  41 H41            6.2461    -2.3210    -0.1867 H       
  42 H42            2.8883     3.6832    -2.4292 H       
  43 H43           10.8332    -2.6479     0.9530 H       
  44 H44            8.7596    -1.0739    -2.4364 H       
  45 H45           10.6468    -1.7034    -3.8842 H       
  46 H46           12.6283    -2.7989    -2.9219 H       
  47 H47           13.6280    -4.4221    -2.0574 H       
  48 H48           14.3769    -2.8326    -1.7726 H       
  49 H49           14.8130    -4.2190    -0.7448 H       
@<TRIPOS>BOND
   1    1   11 1
   2    1   12 1
   3    2   14 1
   4    2   21 1
   5    3   15 1
   6    3   42 1
   7    4   20 1
   8    4   22 1
   9    5   19 2
  10    6   25 1
  11    6   28 1
  12    7    8 1
  13    7    9 1
  14    7   10 1
  15    8   11 1
  16    8   29 1
  17    8   30 1
  18    9   12 1
  19    9   31 1
  20    9   32 1
  21   10   13 1
  22   10   33 1
  23   10   34 1
  24   11   35 1
  25   11   36 1
  26   12   37 1
  27   12   38 1
  28   13   14 ar
  29   13   15 ar
  30   14   16 ar
  31   15   17 ar
  32   16   18 ar
  33   16   19 1
  34   17   18 ar
  35   17   39 1
  36   18   40 1
  37   19   20 1
  38   20   21 2
  39   21   41 1
  40   22   23 ar
  41   22   24 ar
  42   23   25 ar
  43   23   43 1
  44   24   26 ar
  45   24   44 1
  46   25   27 ar
  47   26   27 ar
  48   26   45 1
  49   27   46 1
  50   28   47 1
  51   28   48 1
  52   28   49 1

#	End of record

#	Name: 5389783
#	Creating user name:	landrgr1
#	Creation time:	28. 01. 2015 13:52

#	Modifying user name:	landrgr1
#	Modification time:	28. 01. 2015 13:52

#	Program:	corina 3.48 0006  22.01.2010

@<TRIPOS>MOLECULE
5389783
  53   55    0    0    0
SMALL
NO_CHARGES


@<TRIPOS>ATOM
   1 O1             0.0280     1.2580     0.7054 O.3     
   2 O2            -6.4107     0.8012     0.6376 O.3     
   3 O3            -1.9208     1.8130     0.0073 O.2     
   4 O4            -1.2883     1.3771     6.9503 O.3     
   5 O5            -1.2173     3.5374     6.4428 O.2     
   6 N6            -0.7057    -2.0736    -0.3025 N.pl3   
   7 N7             0.6956    -2.0575    -0.3112 N.pl3   
   8 C8            -1.1290    -0.8269     0.0817 C.2     
   9 C9             0.0163    -0.0449     0.3090 C.2     
  10 C10            1.1103    -0.8135     0.0641 C.2     
  11 C11           -2.4747    -0.4046     0.2231 C.2     
  12 C12           -2.8000     0.9752     0.1726 C.2     
  13 C13           -3.4964    -1.3486     0.4083 C.2     
  14 C14            2.5438    -0.3654     0.1872 C.3     
  15 C15           -0.2497     1.5308     2.0049 C.ar    
  16 C16           -4.1345     1.3697     0.3140 C.2     
  17 C17           -4.7890    -0.9405     0.5431 C.2     
  18 C18           -5.1166     0.4165     0.5003 C.2     
  19 C19           -0.3607     2.8509     2.4279 C.ar    
  20 C20           -0.4282     0.4895     2.9092 C.ar    
  21 C21           -0.8177     2.0881     4.6590 C.ar    
  22 C22           -0.6428     3.1319     3.7456 C.ar    
  23 C23           -0.7110     0.7621     4.2285 C.ar    
  24 C24           -1.5835     1.7432     8.3240 C.3     
  25 C25           -1.7400     0.4760     9.1671 C.3     
  26 C26           -1.1200     2.3846     6.0714 C.2     
  27 C27           -6.6804     2.2033     0.5792 C.3     
  28 C28           -2.0511     0.8617    10.6146 C.3     
  29 C29           -8.1818     2.4415     0.7523 C.3     
  30 H30           -1.2724    -2.8271    -0.5305 H       
  31 H31            1.2714    -2.8028    -0.5437 H       
  32 H32           -3.2573    -2.4012     0.4438 H       
  33 H33            3.2058    -1.2139     0.0142 H       
  34 H34            2.7468     0.4102    -0.5513 H       
  35 H35            2.7158     0.0315     1.1877 H       
  36 H36           -4.3962     2.4169     0.2779 H       
  37 H37           -5.5688    -1.6741     0.6845 H       
  38 H38           -0.2250     3.6567     1.7217 H       
  39 H39           -0.3452    -0.5344     2.5759 H       
  40 H40           -0.7285     4.1574     4.0734 H       
  41 H41           -0.8495    -0.0471     4.9302 H       
  42 H42           -0.7679     2.3464     8.7227 H       
  43 H43           -2.5094     2.3174     8.3560 H       
  44 H44           -2.5556    -0.1272     8.7685 H       
  45 H45           -0.8141    -0.0983     9.1351 H       
  46 H46           -6.1376     2.7113     1.3764 H       
  47 H47           -6.3592     2.5951    -0.3859 H       
  48 H48           -2.1625    -0.0410    11.2153 H       
  49 H49           -1.2355     1.4650    11.0133 H       
  50 H50           -2.9770     1.4360    10.6466 H       
  51 H51           -8.3875     3.5110     0.7077 H       
  52 H52           -8.7245     1.9336    -0.0449 H       
  53 H53           -8.5029     2.0497     1.7174 H       
@<TRIPOS>BOND
   1    1    9 1
   2    1   15 1
   3    2   18 1
   4    2   27 1
   5    3   12 2
   6    4   24 1
   7    4   26 1
   8    5   26 2
   9    6    7 1
  10    6    8 1
  11    6   30 1
  12    7   10 1
  13    7   31 1
  14    8    9 1
  15    8   11 2
  16    9   10 2
  17   10   14 1
  18   11   12 1
  19   11   13 1
  20   12   16 1
  21   13   17 2
  22   13   32 1
  23   14   33 1
  24   14   34 1
  25   14   35 1
  26   15   19 ar
  27   15   20 ar
  28   16   18 2
  29   16   36 1
  30   17   18 1
  31   17   37 1
  32   19   22 ar
  33   19   38 1
  34   20   23 ar
  35   20   39 1
  36   21   22 ar
  37   21   23 ar
  38   21   26 1
  39   22   40 1
  40   23   41 1
  41   24   25 1
  42   24   42 1
  43   24   43 1
  44   25   28 1
  45   25   44 1
  46   25   45 1
  47   27   29 1
  48   27   46 1
  49   27   47 1
  50   28   48 1
  51   28   49 1
  52   28   50 1
  53   29   51 1
  54   29   52 1
  55   29   53 1

#	End of record

#	Name: 5389758
#	Creating user name:	landrgr1
#	Creation time:	28. 01. 2015 13:52

#	Modifying user name:	landrgr1
#	Modification time:	28. 01. 2015 13:52

#	Program:	corina 3.48 0006  22.01.2010

@<TRIPOS>MOLECULE
5389758
  45   47    0    0    0
SMALL
NO_CHARGES


@<TRIPOS>ATOM
   1 O1            -0.0147     1.3583     0.0140 O.3     
   2 O2            -6.3876     0.7696     0.6794 O.3     
   3 O3            -3.1764    -2.5867     0.7411 O.2     
   4 O4             0.0392     4.0764    -0.4333 O.3     
   5 N5            -0.6083    -2.1222     0.4479 N.pl3   
   6 N6             0.7854    -2.0688     0.3107 N.pl3   
   7 C7            -1.0804    -0.8380     0.3532 C.2     
   8 C8             0.0270     0.0045     0.1574 C.2     
   9 C9             1.1470    -0.7651     0.1352 C.2     
  10 C10           -2.4368    -0.4345     0.4374 C.2     
  11 C11           -3.4580    -1.3982     0.6387 C.2     
  12 C12           -2.7792     0.9219     0.3280 C.2     
  13 C13            2.5551    -0.2618    -0.0521 C.3     
  14 C14           -0.4360     1.8612    -1.1768 C.ar    
  15 C15           -5.0950     0.3639     0.6015 C.2     
  16 C16           -4.7898    -0.9782     0.7187 C.2     
  17 C17           -4.0832     1.3072     0.4096 C.2     
  18 C18           -0.4084     3.2347    -1.4032 C.ar    
  19 C19           -0.8885     1.0076    -2.1701 C.ar    
  20 C20           -0.8382     3.7420    -2.6183 C.ar    
  21 C21           -1.3161     1.5209    -3.3808 C.ar    
  22 C22           -7.3745    -0.2438     0.8828 C.3     
  23 C23           -1.2939     2.8849    -3.6032 C.ar    
  24 C24           -8.7612     0.3998     0.9437 C.3     
  25 C25            0.0392     5.4730    -0.7356 C.3     
  26 H26           -1.1417    -2.9213     0.5812 H       
  27 H27            1.3888    -2.8279     0.3363 H       
  28 H28           -2.0070     1.6621     0.1791 H       
  29 H29            3.2385    -1.1087    -0.1137 H       
  30 H30            2.6136     0.3200    -0.9720 H       
  31 H31            2.8316     0.3674     0.7939 H       
  32 H32           -5.5773    -1.7012     0.8714 H       
  33 H33           -4.3373     2.3535     0.3250 H       
  34 H34           -0.9068    -0.0586    -1.9989 H       
  35 H35           -0.8178     4.8070    -2.7964 H       
  36 H36           -1.6682     0.8545    -4.1543 H       
  37 H37           -7.3400    -0.9553     0.0578 H       
  38 H38           -7.1737    -0.7636     1.8196 H       
  39 H39           -1.6291     3.2818    -4.5500 H       
  40 H40           -8.9620     0.9196     0.0069 H       
  41 H41           -9.5139    -0.3732     1.0989 H       
  42 H42           -8.7956     1.1113     1.7687 H       
  43 H43           -0.9776     5.7967    -0.9579 H       
  44 H44            0.4188     6.0302     0.1209 H       
  45 H45            0.6765     5.6575    -1.6005 H       
@<TRIPOS>BOND
   1    1    8 1
   2    1   14 1
   3    2   15 1
   4    2   22 1
   5    3   11 2
   6    4   18 1
   7    4   25 1
   8    5    6 1
   9    5    7 1
  10    5   26 1
  11    6    9 1
  12    6   27 1
  13    7    8 1
  14    7   10 2
  15    8    9 2
  16    9   13 1
  17   10   11 1
  18   10   12 1
  19   11   16 1
  20   12   17 2
  21   12   28 1
  22   13   29 1
  23   13   30 1
  24   13   31 1
  25   14   18 ar
  26   14   19 ar
  27   15   16 2
  28   15   17 1
  29   16   32 1
  30   17   33 1
  31   18   20 ar
  32   19   21 ar
  33   19   34 1
  34   20   23 ar
  35   20   35 1
  36   21   23 ar
  37   21   36 1
  38   22   24 1
  39   22   37 1
  40   22   38 1
  41   23   39 1
  42   24   40 1
  43   24   41 1
  44   24   42 1
  45   25   43 1
  46   25   44 1
  47   25   45 1

#	End of record

#	Name: 5389750
#	Creating user name:	landrgr1
#	Creation time:	28. 01. 2015 13:52

#	Modifying user name:	landrgr1
#	Modification time:	28. 01. 2015 13:52

#	Program:	corina 3.48 0006  22.01.2010

@<TRIPOS>MOLECULE
5389750
  43   46    0    0    0
SMALL
NO_CHARGES


@<TRIPOS>ATOM
   1 O1            -0.0162     1.3459     0.0094 O.3     
   2 O2            -2.2906    -2.8261     0.0113 O.3     
   3 O3             1.0494     3.2783     0.0106 O.2     
   4 N4            -0.1301    -4.7771    -1.3879 N.3     
   5 C5             0.1236    -6.2262    -1.4866 C.3     
   6 C6            -1.5253    -4.5142    -1.8002 C.3     
   7 C7            -1.1721    -6.8826    -2.0079 C.3     
   8 C8            -1.8995    -5.7080    -2.7136 C.3     
   9 C9             0.1162    -4.2913    -0.0236 C.3     
  10 C10            2.4750     0.0919    -0.0228 C.2     
  11 C11            3.9220    -0.3434    -0.0403 C.3     
  12 C12            4.7207     0.9050     0.3941 C.3     
  13 C13            1.2334    -0.6854    -0.0144 C.ar    
  14 C14            2.3892     1.4457    -0.0137 C.2     
  15 C15            3.7758     2.0524    -0.0243 C.3     
  16 C16            0.0879    -2.7846    -0.0142 C.ar    
  17 C17            1.2597    -2.0844    -0.0228 C.ar    
  18 C18            0.0021    -0.0041     0.0020 C.ar    
  19 C19           -1.1341    -2.1155     0.0032 C.ar    
  20 C20           -1.1785    -0.7306     0.0108 C.ar    
  21 C21            1.1176     2.0623     0.0025 C.2     
  22 C22           -2.5056    -0.0167     0.0290 C.3     
  23 H23            0.9404    -6.4130    -2.1838 H       
  24 H24            0.3728    -6.6268    -0.5040 H       
  25 H25           -2.1792    -4.4838    -0.9286 H       
  26 H26           -1.5871    -3.5780    -2.3549 H       
  27 H27           -0.9429    -7.6767    -2.7186 H       
  28 H28           -1.7701    -7.2651    -1.1808 H       
  29 H29           -2.9777    -5.8674    -2.7258 H       
  30 H30           -1.5165    -5.5619    -3.7236 H       
  31 H31           -0.6568    -4.6734     0.6432 H       
  32 H32            1.0923    -4.6385     0.3150 H       
  33 H33            4.0807    -1.1590     0.6652 H       
  34 H34            4.2135    -0.6487    -1.0453 H       
  35 H35            4.8829     0.9078     1.4720 H       
  36 H36            5.6684     0.9665    -0.1409 H       
  37 H37            3.8356     2.8721     0.6917 H       
  38 H38            4.0273     2.4039    -1.0249 H       
  39 H39            2.2039    -2.6085    -0.0365 H       
  40 H40           -2.8366     0.1611    -0.9942 H       
  41 H41           -3.2416    -0.6311     0.5475 H       
  42 H42           -2.3983     0.9364     0.5469 H       
  43 H43           -2.6162    -3.0375     0.8970 H       
@<TRIPOS>BOND
   1    1   18 1
   2    1   21 1
   3    2   19 1
   4    2   43 1
   5    3   21 2
   6    4    5 1
   7    4    6 1
   8    4    9 1
   9    5    7 1
  10    5   23 1
  11    5   24 1
  12    6    8 1
  13    6   25 1
  14    6   26 1
  15    7    8 1
  16    7   27 1
  17    7   28 1
  18    8   29 1
  19    8   30 1
  20    9   16 1
  21    9   31 1
  22    9   32 1
  23   10   11 1
  24   10   13 1
  25   10   14 2
  26   11   12 1
  27   11   33 1
  28   11   34 1
  29   12   15 1
  30   12   35 1
  31   12   36 1
  32   13   17 ar
  33   13   18 ar
  34   14   15 1
  35   14   21 1
  36   15   37 1
  37   15   38 1
  38   16   17 ar
  39   16   19 ar
  40   17   39 1
  41   18   20 ar
  42   19   20 ar
  43   20   22 1
  44   22   40 1
  45   22   41 1
  46   22   42 1

#	End of record

#	Name: 5389748
#	Creating user name:	landrgr1
#	Creation time:	28. 01. 2015 13:52

#	Modifying user name:	landrgr1
#	Modification time:	28. 01. 2015 13:52

#	Program:	corina 3.48 0006  22.01.2010

@<TRIPOS>MOLECULE
5389748
  59   62    0    0    0
SMALL
NO_CHARGES


@<TRIPOS>ATOM
   1 O1             0.1365     0.9305    -0.1896 O.3     
   2 O2            -1.5849    -3.4367    -0.9271 O.3     
   3 O3             3.4302     2.3653    -0.2011 O.3     
   4 O4             3.8987    -0.2776    -0.7888 O.2     
   5 O5             5.6020     4.0538    -0.0480 O.3     
   6 N6            -2.7360    -0.3046    -1.5942 N.3     
   7 N7            -4.4810    -0.4888    -3.8362 N.3     
   8 C8            -4.1730    -0.0322    -1.4508 C.3     
   9 C9            -2.4936    -1.2931    -2.6543 C.3     
  10 C10           -4.7234     0.4997    -2.7761 C.3     
  11 C11           -3.0440    -0.7612    -3.9796 C.3     
  12 C12           -2.1541    -0.7461    -0.3197 C.3     
  13 C13           -0.7526    -1.2479    -0.5544 C.ar    
  14 C14           -5.0629    -0.0473    -5.1107 C.3     
  15 C15            0.3228    -0.3740    -0.4750 C.ar    
  16 C16           -0.5327    -2.5826    -0.8496 C.ar    
  17 C17            1.6229    -0.8616    -0.6968 C.ar    
  18 C18            0.7594    -3.0567    -1.0688 C.ar    
  19 C19            1.8279    -2.2099    -0.9939 C.ar    
  20 C20            2.7483     0.0845    -0.6072 C.2     
  21 C21            1.1526     1.7993    -0.1062 C.2     
  22 C22            2.4372     1.4396    -0.2993 C.2     
  23 C23            0.8469     3.2389     0.2181 C.3     
  24 C24            4.3146     2.2464     0.8246 C.ar    
  25 C25            5.4119     3.0998     0.9024 C.ar    
  26 C26            4.1229     1.2792     1.7982 C.ar    
  27 C27            6.3097     2.9748     1.9497 C.ar    
  28 C28            5.0231     1.1599     2.8409 C.ar    
  29 C29            6.1152     2.0038     2.9151 C.ar    
  30 C30            6.7491     4.8936     0.0961 C.3     
  31 C31            6.7948     5.8970    -1.0580 C.3     
  32 H32           -4.6927    -0.9525    -1.1843 H       
  33 H33           -4.3258     0.7117    -0.6688 H       
  34 H34           -1.4220    -1.4685    -2.7498 H       
  35 H35           -2.9943    -2.2277    -2.4015 H       
  36 H36           -4.2227     1.4343    -3.0290 H       
  37 H37           -5.7950     0.6751    -2.6806 H       
  38 H38           -2.8912    -1.5051    -4.7616 H       
  39 H39           -2.5242     0.1590    -4.2461 H       
  40 H40           -2.1281     0.0915     0.3774 H       
  41 H41           -2.7620    -1.5483     0.0988 H       
  42 H42           -4.6128     0.9002    -5.4068 H       
  43 H43           -4.8689    -0.7971    -5.8778 H       
  44 H44           -6.1387     0.0825    -4.9933 H       
  45 H45            0.9165    -4.1002    -1.2989 H       
  46 H46            2.8275    -2.5817    -1.1641 H       
  47 H47           -1.9703    -3.5068    -1.8112 H       
  48 H48           -0.2282     3.3611     0.3505 H       
  49 H49            1.3605     3.5213     1.1371 H       
  50 H50            1.1871     3.8755    -0.5986 H       
  51 H51            3.2702     0.6187     1.7427 H       
  52 H52            7.1619     3.6353     2.0122 H       
  53 H53            4.8726     0.4057     3.5990 H       
  54 H54            6.8163     1.9072     3.7309 H       
  55 H55            6.6895     5.4309     1.0426 H       
  56 H56            7.6513     4.2819     0.0817 H       
  57 H57            6.8544     5.3597    -2.0045 H       
  58 H58            5.8927     6.5086    -1.0436 H       
  59 H59            7.6699     6.5376    -0.9481 H       
@<TRIPOS>BOND
   1    1   15 1
   2    1   21 1
   3    2   16 1
   4    2   47 1
   5    3   22 1
   6    3   24 1
   7    4   20 2
   8    5   25 1
   9    5   30 1
  10    6    8 1
  11    6    9 1
  12    6   12 1
  13    7   10 1
  14    7   11 1
  15    7   14 1
  16    8   10 1
  17    8   32 1
  18    8   33 1
  19    9   11 1
  20    9   34 1
  21    9   35 1
  22   10   36 1
  23   10   37 1
  24   11   38 1
  25   11   39 1
  26   12   13 1
  27   12   40 1
  28   12   41 1
  29   13   15 ar
  30   13   16 ar
  31   14   42 1
  32   14   43 1
  33   14   44 1
  34   15   17 ar
  35   16   18 ar
  36   17   19 ar
  37   17   20 1
  38   18   19 ar
  39   18   45 1
  40   19   46 1
  41   20   22 1
  42   21   22 2
  43   21   23 1
  44   23   48 1
  45   23   49 1
  46   23   50 1
  47   24   25 ar
  48   24   26 ar
  49   25   27 ar
  50   26   28 ar
  51   26   51 1
  52   27   29 ar
  53   27   52 1
  54   28   29 ar
  55   28   53 1
  56   29   54 1
  57   30   31 1
  58   30   55 1
  59   30   56 1
  60   31   57 1
  61   31   58 1
  62   31   59 1

#	End of record

#	Name: 5389726
#	Creating user name:	landrgr1
#	Creation time:	28. 01. 2015 13:52

#	Modifying user name:	landrgr1
#	Modification time:	28. 01. 2015 13:52

#	Program:	corina 3.48 0006  22.01.2010

@<TRIPOS>MOLECULE
5389726
  39   41    0    0    0
SMALL
NO_CHARGES


@<TRIPOS>ATOM
   1 O1             0.0068     1.3335     0.4369 O.3     
   2 O2            -6.4052     0.5883     0.4913 O.3     
   3 O3            -1.9368     1.7296    -0.0662 O.2     
   4 O4             3.9634     3.2110    -1.4167 O.3     
   5 N5            -0.5779    -2.1454    -0.0216 N.pl3   
   6 N6             0.8213    -2.0693    -0.0435 N.pl3   
   7 C7            -1.0561    -0.8731     0.1621 C.2     
   8 C8            -2.4193    -0.4933     0.2454 C.2     
   9 C9             0.0531    -0.0153     0.2529 C.2     
  10 C10            1.1801    -0.7640     0.1253 C.2     
  11 C11           -2.7908     0.8697     0.1170 C.2     
  12 C12           -3.4125    -1.4633     0.4499 C.2     
  13 C13            1.1821     1.9962     0.5959 C.ar    
  14 C14           -4.1417     1.2222     0.2020 C.2     
  15 C15           -4.7218    -1.0961     0.5288 C.2     
  16 C16           -5.0951     0.2444     0.4091 C.2     
  17 C17            1.9804     2.2677    -0.5053 C.ar    
  18 C18            1.5823     2.4073     1.8597 C.ar    
  19 C19            3.1788     2.9440    -0.3397 C.ar    
  20 C20            2.7774     3.0818     2.0218 C.ar    
  21 C21            3.5772     3.3479     0.9271 C.ar    
  22 C22           -6.7218     1.9751     0.3548 C.3     
  23 C23            5.1847     3.9115    -1.1719 C.3     
  24 H24           -1.1106    -2.9498    -0.1221 H       
  25 H25            2.1922    -0.3880     0.1535 H       
  26 H26            1.4297    -2.8160    -0.1584 H       
  27 H27           -3.1381    -2.5036     0.5446 H       
  28 H28           -4.4385     2.2562     0.1063 H       
  29 H29           -5.4795    -1.8496     0.6856 H       
  30 H30            1.6689     1.9523    -1.4901 H       
  31 H31            0.9590     2.2002     2.7170 H       
  32 H32            3.0869     3.4012     3.0060 H       
  33 H33            4.5111     3.8746     1.0566 H       
  34 H34           -6.2206     2.5412     1.1399 H       
  35 H35           -6.3864     2.3301    -0.6197 H       
  36 H36           -7.7998     2.1118     0.4399 H       
  37 H37            5.7136     4.0595    -2.1134 H       
  38 H38            4.9644     4.8799    -0.7227 H       
  39 H39            5.8076     3.3293    -0.4929 H       
@<TRIPOS>BOND
   1    1    9 1
   2    1   13 1
   3    2   16 1
   4    2   22 1
   5    3   11 2
   6    4   19 1
   7    4   23 1
   8    5    6 1
   9    5    7 1
  10    5   24 1
  11    6   10 1
  12    6   26 1
  13    7    8 2
  14    7    9 1
  15    8   11 1
  16    8   12 1
  17    9   10 2
  18   10   25 1
  19   11   14 1
  20   12   15 2
  21   12   27 1
  22   13   17 ar
  23   13   18 ar
  24   14   16 2
  25   14   28 1
  26   15   16 1
  27   15   29 1
  28   17   19 ar
  29   17   30 1
  30   18   20 ar
  31   18   31 1
  32   19   21 ar
  33   20   21 ar
  34   20   32 1
  35   21   33 1
  36   22   34 1
  37   22   35 1
  38   22   36 1
  39   23   37 1
  40   23   38 1
  41   23   39 1

#	End of record

#	Name: 5389704
#	Creating user name:	landrgr1
#	Creation time:	28. 01. 2015 13:52

#	Modifying user name:	landrgr1
#	Modification time:	28. 01. 2015 13:52

#	Program:	corina 3.48 0006  22.01.2010

@<TRIPOS>MOLECULE
5389704
  46   49    0    0    0
SMALL
NO_CHARGES


@<TRIPOS>ATOM
   1 O1            -0.2646     1.4121     0.6155 O.3     
   2 O2             1.7019     1.0041    -0.4321 O.3     
   3 O3            -5.9049    -8.5435    -3.3549 O.3     
   4 O4            -5.7618    -6.2493    -0.6025 O.2     
   5 O5            -6.5812    -5.4253    -4.8745 O.2     
   6 O6            -3.1119    -3.3249    -3.0992 O.2     
   7 N7            -6.1993    -5.8469    -2.7548 N.am    
   8 N8            -2.5866    -3.5580    -0.6091 N.pl3   
   9 N9            -4.8566    -4.3720    -4.0185 N.am    
  10 C10           -0.7200    -2.2574     0.2353 C.ar    
  11 C11           -1.6692    -3.3924     0.5210 C.3     
  12 C12           -0.1797     0.0754     0.3520 C.ar    
  13 C13           -1.0511    -0.9696     0.6133 C.ar    
  14 C14           -4.3203    -4.7523    -1.6864 C.2     
  15 C15            1.0293    -0.1754    -0.2920 C.ar    
  16 C16           -7.3015    -6.7148    -2.7277 C.ar    
  17 C17           -5.4729    -5.6689    -1.6322 C.2     
  18 C18            0.4804    -2.5064    -0.4038 C.ar    
  19 C19           -3.5302    -4.5202    -0.5758 C.2     
  20 C20            1.3547    -1.4686    -0.6677 C.ar    
  21 C21           -5.8893    -5.2178    -3.8971 C.2     
  22 C22           -4.0464    -4.0942    -2.9763 C.2     
  23 C23           -7.1353    -8.0643    -3.0312 C.ar    
  24 C24            1.0795     1.9139     0.4942 C.3     
  25 C25           -8.5578    -6.2328    -2.3931 C.ar    
  26 C26           -8.2270    -8.9166    -3.0029 C.ar    
  27 C27           -9.6422    -7.0897    -2.3671 C.ar    
  28 C28           -9.4779    -8.4275    -2.6744 C.ar    
  29 C29           -5.8097    -9.9375    -3.6544 C.3     
  30 H30           -2.2399    -3.1705     1.4228 H       
  31 H31           -1.1025    -4.3120     0.6668 H       
  32 H32           -1.9895    -0.7779     1.1122 H       
  33 H33            0.7357    -3.5139    -0.6974 H       
  34 H34           -2.5151    -2.9754    -1.3813 H       
  35 H35           -3.6690    -5.1098     0.3184 H       
  36 H36            2.2917    -1.6660    -1.1672 H       
  37 H37            1.0753     2.9269     0.0918 H       
  38 H38            1.5873     1.8859     1.4583 H       
  39 H39           -4.6876    -3.9504    -4.8756 H       
  40 H40           -8.6891    -5.1882    -2.1526 H       
  41 H41           -8.1011    -9.9632    -3.2378 H       
  42 H42          -10.6202    -6.7131    -2.1060 H       
  43 H43          -10.3280    -9.0933    -2.6531 H       
  44 H44           -6.4482   -10.1705    -4.5065 H       
  45 H45           -4.7765   -10.1877    -3.8954 H       
  46 H46           -6.1318   -10.5177    -2.7897 H       
@<TRIPOS>BOND
   1    1   12 1
   2    1   24 1
   3    2   15 1
   4    2   24 1
   5    3   23 1
   6    3   29 1
   7    4   17 2
   8    5   21 2
   9    6   22 2
  10    7   16 1
  11    7   17 am
  12    7   21 am
  13    8   11 1
  14    8   19 1
  15    8   34 1
  16    9   21 am
  17    9   22 am
  18    9   39 1
  19   10   11 1
  20   10   13 ar
  21   10   18 ar
  22   11   30 1
  23   11   31 1
  24   12   13 ar
  25   12   15 ar
  26   13   32 1
  27   14   17 1
  28   14   19 2
  29   14   22 1
  30   15   20 ar
  31   16   23 ar
  32   16   25 ar
  33   18   20 ar
  34   18   33 1
  35   19   35 1
  36   20   36 1
  37   23   26 ar
  38   24   37 1
  39   24   38 1
  40   25   27 ar
  41   25   40 1
  42   26   28 ar
  43   26   41 1
  44   27   28 ar
  45   27   42 1
  46   28   43 1
  47   29   44 1
  48   29   45 1
  49   29   46 1

#	End of record

#	Name: 5389673
#	Creating user name:	landrgr1
#	Creation time:	28. 01. 2015 13:52

#	Modifying user name:	landrgr1
#	Modification time:	28. 01. 2015 13:52

#	Program:	corina 3.48 0006  22.01.2010

@<TRIPOS>MOLECULE
5389673
  50   53    0    0    0
SMALL
NO_CHARGES


@<TRIPOS>ATOM
   1 O1            -0.2646     1.4121     0.6155 O.3     
   2 O2             1.7019     1.0041    -0.4321 O.3     
   3 O3            -5.9019    -8.5409    -3.3558 O.3     
   4 O4            -5.7618    -6.2492    -0.6025 O.2     
   5 O5           -10.8765    -6.6211    -2.0384 O.3     
   6 O6            -6.5812    -5.4252    -4.8745 O.2     
   7 O7            -3.1119    -3.3249    -3.0992 O.2     
   8 N8            -6.1993    -5.8469    -2.7548 N.am    
   9 N9            -2.5866    -3.5580    -0.6091 N.pl3   
  10 N10           -4.8568    -4.3717    -4.0184 N.am    
  11 C11           -0.7200    -2.2574     0.2353 C.ar    
  12 C12           -1.6692    -3.3924     0.5210 C.3     
  13 C13           -7.3011    -6.7152    -2.7278 C.ar    
  14 C14           -4.3203    -4.7523    -1.6864 C.2     
  15 C15           -0.1797     0.0754     0.3520 C.ar    
  16 C16           -1.0511    -0.9696     0.6133 C.ar    
  17 C17           -5.4729    -5.6689    -1.6322 C.2     
  18 C18            1.0293    -0.1754    -0.2920 C.ar    
  19 C19            0.4804    -2.5064    -0.4038 C.ar    
  20 C20           -3.5302    -4.5202    -0.5758 C.2     
  21 C21           -5.8894    -5.2176    -3.8970 C.2     
  22 C22           -7.1339    -8.0638    -3.0315 C.ar    
  23 C23            1.3547    -1.4686    -0.6677 C.ar    
  24 C24           -4.0464    -4.0942    -2.9763 C.2     
  25 C25           -8.5575    -6.2329    -2.3930 C.ar    
  26 C26            1.0795     1.9139     0.4942 C.3     
  27 C27           -9.6442    -7.0931    -2.3666 C.ar    
  28 C28           -8.2234    -8.9192    -3.0037 C.ar    
  29 C29           -9.4755    -8.4352    -2.6744 C.ar    
  30 C30           -5.8043    -9.9347    -3.6558 C.3     
  31 C31          -11.9512    -7.5629    -2.0311 C.3     
  32 H32           -2.2399    -3.1705     1.4228 H       
  33 H33           -1.1025    -4.3120     0.6668 H       
  34 H34           -1.9895    -0.7779     1.1122 H       
  35 H35           -2.5151    -2.9754    -1.3813 H       
  36 H36            0.7357    -3.5139    -0.6974 H       
  37 H37           -3.6690    -5.1098     0.3184 H       
  38 H38            2.2917    -1.6660    -1.1672 H       
  39 H39           -8.6891    -5.1883    -2.1526 H       
  40 H40           -4.6881    -3.9497    -4.8754 H       
  41 H41            1.0753     2.9269     0.0918 H       
  42 H42            1.5873     1.8859     1.4583 H       
  43 H43           -8.0942    -9.9651    -3.2396 H       
  44 H44          -10.3233    -9.1039    -2.6529 H       
  45 H45           -4.7707   -10.1829    -3.8971 H       
  46 H46           -6.1252   -10.5158    -2.7913 H       
  47 H47           -6.4425   -10.1685    -4.5079 H       
  48 H48          -12.0594    -7.9984    -3.0245 H       
  49 H49          -11.7380    -8.3518    -1.3098 H       
  50 H50          -12.8758    -7.0569    -1.7536 H       
@<TRIPOS>BOND
   1    1   15 1
   2    1   26 1
   3    2   18 1
   4    2   26 1
   5    3   22 1
   6    3   30 1
   7    4   17 2
   8    5   27 1
   9    5   31 1
  10    6   21 2
  11    7   24 2
  12    8   13 1
  13    8   17 am
  14    8   21 am
  15    9   12 1
  16    9   20 1
  17    9   35 1
  18   10   21 am
  19   10   24 am
  20   10   40 1
  21   11   12 1
  22   11   16 ar
  23   11   19 ar
  24   12   32 1
  25   12   33 1
  26   13   22 ar
  27   13   25 ar
  28   14   17 1
  29   14   20 2
  30   14   24 1
  31   15   16 ar
  32   15   18 ar
  33   16   34 1
  34   18   23 ar
  35   19   23 ar
  36   19   36 1
  37   20   37 1
  38   22   28 ar
  39   23   38 1
  40   25   27 ar
  41   25   39 1
  42   26   41 1
  43   26   42 1
  44   27   29 ar
  45   28   29 ar
  46   28   43 1
  47   29   44 1
  48   30   45 1
  49   30   46 1
  50   30   47 1
  51   31   48 1
  52   31   49 1
  53   31   50 1

#	End of record

#	Name: 5389639
#	Creating user name:	landrgr1
#	Creation time:	28. 01. 2015 13:52

#	Modifying user name:	landrgr1
#	Modification time:	28. 01. 2015 13:52

#	Program:	corina 3.48 0006  22.01.2010

@<TRIPOS>MOLECULE
5389639
  39   41    0    0    0
SMALL
NO_CHARGES


@<TRIPOS>ATOM
   1 Cl1            0.1121    -4.5214    -0.0204 Cl      
   2 O2            -0.0162     1.3462     0.0094 O.3     
   3 O3            -2.2970    -2.8216     0.0134 O.3     
   4 O4             1.0533     3.2785     0.0100 O.2     
   5 N5            -2.9500     0.2276    -1.3530 N.3     
   6 C6            -4.3433     0.7089    -1.3832 C.3     
   7 C7            -2.0912     1.2296    -2.0195 C.3     
   8 C8            -4.3437     2.0616    -2.1258 C.3     
   9 C9            -3.0436     1.9973    -2.9699 C.3     
  10 C10           -2.5057    -0.0123     0.0265 C.3     
  11 C11           -1.1800    -0.7288     0.0099 C.ar    
  12 C12            0.0021    -0.0041     0.0020 C.ar    
  13 C13            1.2323    -0.6878    -0.0134 C.ar    
  14 C14           -1.1387    -2.1134     0.0039 C.ar    
  15 C15            2.4746     0.0873    -0.0216 C.2     
  16 C16            1.2562    -2.0870    -0.0203 C.ar    
  17 C17            0.0827    -2.7856    -0.0119 C.ar    
  18 C18            3.8156    -0.6000    -0.0386 C.3     
  19 C19            2.3854     1.4429    -0.0139 C.2     
  20 C20            1.1189     2.0623     0.0025 C.2     
  21 C21            4.2264    -0.9522     1.3925 C.3     
  22 H22           -4.9712    -0.0062    -1.9147 H       
  23 H23           -4.7110     0.8442    -0.3660 H       
  24 H24           -1.6600     1.9090    -1.2843 H       
  25 H25           -1.3038     0.7358    -2.5889 H       
  26 H26           -5.2182     2.1468    -2.7709 H       
  27 H27           -4.3033     2.8897    -1.4183 H       
  28 H28           -2.6639     2.9974    -3.1789 H       
  29 H29           -3.2048     1.4416    -3.8936 H       
  30 H30           -2.3971     0.9407     0.5442 H       
  31 H31           -3.2434    -0.6252     0.5445 H       
  32 H32            2.1996    -2.6127    -0.0325 H       
  33 H33            3.7491    -1.5117    -0.6323 H       
  34 H34            4.5595     0.0655    -0.4767 H       
  35 H35            3.2823     2.0445    -0.0195 H       
  36 H36            4.2929    -0.0405     1.9862 H       
  37 H37            3.4826    -1.6177     1.8307 H       
  38 H38            5.1963    -1.4494     1.3802 H       
  39 H39           -2.6419    -3.0232    -0.8672 H       
@<TRIPOS>BOND
   1    1   17 1
   2    2   12 1
   3    2   20 1
   4    3   14 1
   5    3   39 1
   6    4   20 2
   7    5    6 1
   8    5    7 1
   9    5   10 1
  10    6    8 1
  11    6   22 1
  12    6   23 1
  13    7    9 1
  14    7   24 1
  15    7   25 1
  16    8    9 1
  17    8   26 1
  18    8   27 1
  19    9   28 1
  20    9   29 1
  21   10   11 1
  22   10   30 1
  23   10   31 1
  24   11   12 ar
  25   11   14 ar
  26   12   13 ar
  27   13   15 1
  28   13   16 ar
  29   14   17 ar
  30   15   18 1
  31   15   19 2
  32   16   17 ar
  33   16   32 1
  34   18   21 1
  35   18   33 1
  36   18   34 1
  37   19   20 1
  38   19   35 1
  39   21   36 1
  40   21   37 1
  41   21   38 1

#	End of record

#	Name: 5389628
#	Creating user name:	landrgr1
#	Creation time:	28. 01. 2015 13:52

#	Modifying user name:	landrgr1
#	Modification time:	28. 01. 2015 13:52

#	Program:	corina 3.48 0006  22.01.2010

@<TRIPOS>MOLECULE
5389628
  44   45    0    0    0
SMALL
NO_CHARGES


@<TRIPOS>ATOM
   1 O1             1.2642    -1.1793     0.5273 O.2     
   2 O2            -3.2353    -0.2620    -0.3197 O.2     
   3 O3            -0.1940     2.9494    -0.1265 O.2     
   4 N4             0.5539     0.9126     0.2036 N.am    
   5 N5            -2.5639    -2.7096    -0.0723 N.pl3   
   6 N6            -1.7209     1.3762    -0.2274 N.am    
   7 N7            -3.3588    -6.3062    -4.2472 N.pl3   
   8 C8            -1.0300    -0.9192     0.1249 C.2     
   9 C9            -1.3213    -2.2688     0.2105 C.2     
  10 C10            0.3439    -0.4164     0.3008 C.2     
  11 C11           -2.7637    -3.6138    -1.1217 C.ar    
  12 C12           -2.0781     0.0772    -0.1581 C.2     
  13 C13            1.9110     1.4372     0.3745 C.3     
  14 C14           -3.1592    -5.4027    -3.1985 C.ar    
  15 C15           -0.4499     1.7636    -0.0514 C.2     
  16 C16           -4.0116    -4.1941    -1.3104 C.ar    
  17 C17           -1.7156    -3.9266    -1.9780 C.ar    
  18 C18           -0.2499    -3.2464     0.6197 C.3     
  19 C19           -4.2087    -5.0859    -2.3454 C.ar    
  20 C20           -1.9128    -4.8181    -3.0132 C.ar    
  21 C21            2.6056     1.4787    -0.9622 C.2     
  22 C22           -4.6748    -6.9185    -4.4459 C.3     
  23 C23           -2.2520    -6.6403    -5.1469 C.3     
  24 C24            3.1246     2.6005    -1.3961 C.2     
  25 H25           -3.3193    -2.4000     0.4515 H       
  26 H26            1.8618     2.4437     0.7899 H       
  27 H27            2.4675     0.7909     1.0533 H       
  28 H28           -4.8276    -3.9477    -0.6471 H       
  29 H29           -0.7466    -3.4721    -1.8339 H       
  30 H30           -0.6790    -4.2456     0.6939 H       
  31 H31            0.5454    -3.2470    -0.1258 H       
  32 H32            0.1588    -2.9537     1.5868 H       
  33 H33           -2.3988     2.0448    -0.4129 H       
  34 H34           -5.1778    -5.5401    -2.4897 H       
  35 H35           -1.0967    -5.0647    -3.6763 H       
  36 H36            2.6755     0.5836    -1.5624 H       
  37 H37           -5.2691    -6.2941    -5.1131 H       
  38 H38           -4.5524    -7.9076    -4.8872 H       
  39 H39           -5.1821    -7.0093    -3.4855 H       
  40 H40           -1.4367    -7.0798    -4.5723 H       
  41 H41           -2.5952    -7.3545    -5.8954 H       
  42 H42           -1.9007    -5.7352    -5.6424 H       
  43 H43            3.0547     3.4956    -0.7958 H       
  44 H44            3.6224     2.6302    -2.3540 H       
@<TRIPOS>BOND
   1    1   10 2
   2    2   12 2
   3    3   15 2
   4    4   10 am
   5    4   13 1
   6    4   15 am
   7    5    9 1
   8    5   11 1
   9    5   25 1
  10    6   12 am
  11    6   15 am
  12    6   33 1
  13    7   14 1
  14    7   22 1
  15    7   23 1
  16    8    9 2
  17    8   10 1
  18    8   12 1
  19    9   18 1
  20   11   16 ar
  21   11   17 ar
  22   13   21 1
  23   13   26 1
  24   13   27 1
  25   14   19 ar
  26   14   20 ar
  27   16   19 ar
  28   16   28 1
  29   17   20 ar
  30   17   29 1
  31   18   30 1
  32   18   31 1
  33   18   32 1
  34   19   34 1
  35   20   35 1
  36   21   24 2
  37   21   36 1
  38   22   37 1
  39   22   38 1
  40   22   39 1
  41   23   40 1
  42   23   41 1
  43   23   42 1
  44   24   43 1
  45   24   44 1

#	End of record

#	Name: 5389602
#	Creating user name:	landrgr1
#	Creation time:	28. 01. 2015 13:52

#	Modifying user name:	landrgr1
#	Modification time:	28. 01. 2015 13:52

#	Program:	corina 3.48 0006  22.01.2010

@<TRIPOS>MOLECULE
5389602
  41   42    0    0    0
SMALL
NO_CHARGES


@<TRIPOS>ATOM
   1 O1             1.1117    -0.7447    -0.2989 O.2     
   2 O2            -3.5295    -0.3088    -0.0214 O.2     
   3 O3            -0.8804     3.2024    -0.5246 O.2     
   4 N4             0.1316     1.2582    -0.4128 N.am    
   5 N5            -2.5672    -2.6721     0.0004 N.pl3   
   6 N6            -2.2153     1.4784    -0.2752 N.am    
   7 N7            -6.1200    -4.9907     1.2094 N.ar    
   8 C8            -1.3468    -2.0994     0.0032 C.2     
   9 C9            -1.2262    -0.7288    -0.1316 C.2     
  10 C10           -0.1142    -2.9532     0.1532 C.3     
  11 C11            0.0901    -0.0841    -0.2859 C.2     
  12 C12           -2.6916    -4.1314     0.0365 C.3     
  13 C13           -2.4090     0.1504    -0.1395 C.2     
  14 C14            1.4280     1.9228    -0.5676 C.3     
  15 C15           -0.9865     1.9975    -0.4061 C.2     
  16 C16            0.3956    -3.3607    -1.2306 C.3     
  17 C17           -4.1498    -4.5116     0.0253 C.ar    
  18 C18           -4.8119    -4.7198    -1.1753 C.ar    
  19 C19            1.7709     2.0203    -2.0318 C.2     
  20 C20           -4.8439    -4.6577     1.2112 C.ar    
  21 C21           -6.1531    -5.0685    -1.1372 C.ar    
  22 C22           -6.7813    -5.1963     0.0874 C.ar    
  23 C23            2.0507     3.1847    -2.5628 C.2     
  24 H24            0.6588    -2.3872     0.6730 H       
  25 H25           -0.3587    -3.8466     0.7279 H       
  26 H26           -3.3629    -2.1180    -0.0254 H       
  27 H27           -2.1977    -4.5598    -0.8356 H       
  28 H28           -2.2234    -4.5136     0.9435 H       
  29 H29            1.3767     2.9236    -0.1389 H       
  30 H30            2.1959     1.3457    -0.0522 H       
  31 H31           -2.9833     2.0710    -0.2827 H       
  32 H32           -0.3774    -3.9267    -1.7504 H       
  33 H33            0.6401    -2.4673    -1.8053 H       
  34 H34            1.2872    -3.9782    -1.1221 H       
  35 H35           -4.2951    -4.6124    -2.1175 H       
  36 H36            1.7860     1.1303    -2.6433 H       
  37 H37           -4.3355    -4.4970     2.1504 H       
  38 H38           -6.7001    -5.2383    -2.0528 H       
  39 H39           -7.8260    -5.4677     0.1256 H       
  40 H40            2.2964     3.2547    -3.6122 H       
  41 H41            2.0356     4.0748    -1.9513 H       
@<TRIPOS>BOND
   1    1   11 2
   2    2   13 2
   3    3   15 2
   4    4   11 am
   5    4   14 1
   6    4   15 am
   7    5    8 1
   8    5   12 1
   9    5   26 1
  10    6   13 am
  11    6   15 am
  12    6   31 1
  13    7   20 ar
  14    7   22 ar
  15    8    9 2
  16    8   10 1
  17    9   11 1
  18    9   13 1
  19   10   16 1
  20   10   24 1
  21   10   25 1
  22   12   17 1
  23   12   27 1
  24   12   28 1
  25   14   19 1
  26   14   29 1
  27   14   30 1
  28   16   32 1
  29   16   33 1
  30   16   34 1
  31   17   18 ar
  32   17   20 ar
  33   18   21 ar
  34   18   35 1
  35   19   23 2
  36   19   36 1
  37   20   37 1
  38   21   22 ar
  39   21   38 1
  40   22   39 1
  41   23   40 1
  42   23   41 1

#	End of record

#	Name: 5389592
#	Creating user name:	landrgr1
#	Creation time:	28. 01. 2015 13:52

#	Modifying user name:	landrgr1
#	Modification time:	28. 01. 2015 13:52

#	Program:	corina 3.48 0006  22.01.2010

@<TRIPOS>MOLECULE
5389592
  52   52    0    0    0
SMALL
NO_CHARGES


@<TRIPOS>ATOM
   1 O1             3.5198     3.6383    -0.3064 O.2     
   2 O2            -1.1368     3.8197    -0.0043 O.2     
   3 O3             1.3135     7.4704    -0.5221 O.2     
   4 N4            -0.0465     1.5113     0.0029 N.pl3   
   5 N5             2.4304     5.5838    -0.4233 N.am    
   6 N6             0.0762     5.6760    -0.2656 N.am    
   7 C7            -1.5470    -0.4195     0.0425 C.3     
   8 C8            -1.5927    -1.9479     0.0951 C.3     
   9 C9            -0.0902     0.0479     0.0533 C.3     
  10 C10           -3.0495    -2.4153     0.0843 C.3     
  11 C11            1.1403     2.1506     0.0027 C.2     
  12 C12            3.6879     6.3186    -0.5815 C.3     
  13 C13            1.1849     3.5255    -0.1355 C.2     
  14 C14            4.0279     6.4333    -2.0689 C.3     
  15 C15           -3.0951    -3.9437     0.1369 C.3     
  16 C16            2.4633     4.2416    -0.2933 C.2     
  17 C17            2.4185     1.3666     0.1531 C.3     
  18 C18            5.3412     7.2006    -2.2341 C.3     
  19 C19           -0.0439     4.3392    -0.1310 C.2     
  20 C20            1.2739     6.2613    -0.4056 C.2     
  21 C21           -4.5519    -4.4111     0.1260 C.3     
  22 C22            2.9513     0.9894    -1.2306 C.3     
  23 C23            5.6812     7.3153    -3.7214 C.3     
  24 H24           -2.0331    -0.0727    -0.8694 H       
  25 H25           -2.0663    -0.0105     0.9091 H       
  26 H26           -1.0734    -2.3570    -0.7716 H       
  27 H27           -1.1066    -2.2948     1.0070 H       
  28 H28            0.4291    -0.3612    -0.8133 H       
  29 H29            0.3959    -0.2990     0.9652 H       
  30 H30           -3.5688    -2.0063     0.9509 H       
  31 H31           -3.5355    -2.0685    -0.8276 H       
  32 H32            3.5820     7.3161    -0.1551 H       
  33 H33            4.4872     5.7861    -0.0661 H       
  34 H34           -0.8715     2.0202    -0.0343 H       
  35 H35            4.1338     5.4358    -2.4953 H       
  36 H36            3.2286     6.9658    -2.5843 H       
  37 H37           -2.5758    -4.3528    -0.7298 H       
  38 H38           -2.6091    -4.2906     1.0488 H       
  39 H39            3.1584     1.9743     0.6741 H       
  40 H40            2.2236     0.4605     0.7268 H       
  41 H41            5.2353     8.1981    -1.8077 H       
  42 H42            6.1405     6.6681    -1.7187 H       
  43 H43           -0.7228     6.2261    -0.2647 H       
  44 H44           -5.0712    -4.0021     0.9927 H       
  45 H45           -5.0380    -4.0643    -0.7858 H       
  46 H46           -4.5845    -5.5000     0.1635 H       
  47 H47            2.2114     0.3817    -1.7515 H       
  48 H48            3.1462     1.8955    -1.8043 H       
  49 H49            3.8758     0.4223    -1.1218 H       
  50 H50            5.7871     6.3178    -4.1479 H       
  51 H51            4.8819     7.8478    -4.2369 H       
  52 H52            6.6168     7.8620    -3.8392 H       
@<TRIPOS>BOND
   1    1   16 2
   2    2   19 2
   3    3   20 2
   4    4    9 1
   5    4   11 1
   6    4   34 1
   7    5   12 1
   8    5   16 am
   9    5   20 am
  10    6   19 am
  11    6   20 am
  12    6   43 1
  13    7    8 1
  14    7    9 1
  15    7   24 1
  16    7   25 1
  17    8   10 1
  18    8   26 1
  19    8   27 1
  20    9   28 1
  21    9   29 1
  22   10   15 1
  23   10   30 1
  24   10   31 1
  25   11   13 2
  26   11   17 1
  27   12   14 1
  28   12   32 1
  29   12   33 1
  30   13   16 1
  31   13   19 1
  32   14   18 1
  33   14   35 1
  34   14   36 1
  35   15   21 1
  36   15   37 1
  37   15   38 1
  38   17   22 1
  39   17   39 1
  40   17   40 1
  41   18   23 1
  42   18   41 1
  43   18   42 1
  44   21   44 1
  45   21   45 1
  46   21   46 1
  47   22   47 1
  48   22   48 1
  49   22   49 1
  50   23   50 1
  51   23   51 1
  52   23   52 1

#	End of record

#	Name: 5389553
#	Creating user name:	landrgr1
#	Creation time:	28. 01. 2015 13:52

#	Modifying user name:	landrgr1
#	Modification time:	28. 01. 2015 13:52

#	Program:	corina 3.48 0006  22.01.2010

@<TRIPOS>MOLECULE
5389553
  44   46    0    0    0
SMALL
NO_CHARGES


@<TRIPOS>ATOM
   1 Cl1            0.1121    -4.5214    -0.0204 Cl      
   2 O2            -0.0162     1.3462     0.0094 O.3     
   3 O3            -2.2970    -2.8216     0.0134 O.3     
   4 O4             1.0533     3.2785     0.0100 O.2     
   5 N5            -2.9500     0.2276    -1.3530 N.3     
   6 N6            -4.5819    -0.1889    -3.6483 N.3     
   7 C7            -4.3387     0.7073    -1.3831 C.3     
   8 C8            -2.7956    -0.9816    -2.1738 C.3     
   9 C9            -4.7363     1.0203    -2.8275 C.3     
  10 C10           -3.1932    -0.6686    -3.6182 C.3     
  11 C11           -2.5057    -0.0123     0.0265 C.3     
  12 C12           -1.1800    -0.7288     0.0099 C.ar    
  13 C13           -5.0263     0.0510    -5.0278 C.3     
  14 C14            0.0021    -0.0041     0.0020 C.ar    
  15 C15            1.2323    -0.6878    -0.0134 C.ar    
  16 C16           -1.1387    -2.1134     0.0039 C.ar    
  17 C17            2.4746     0.0873    -0.0216 C.2     
  18 C18            1.2562    -2.0870    -0.0203 C.ar    
  19 C19            0.0827    -2.7856    -0.0119 C.ar    
  20 C20            3.8156    -0.6000    -0.0386 C.3     
  21 C21            2.3854     1.4429    -0.0139 C.2     
  22 C22            1.1189     2.0623     0.0025 C.2     
  23 C23            4.2264    -0.9522     1.3925 C.3     
  24 H24           -4.9983    -0.0628    -0.9831 H       
  25 H25           -4.4247     1.6101    -0.7784 H       
  26 H26           -1.7567    -1.3101    -2.1456 H       
  27 H27           -3.4376    -1.7709    -1.7828 H       
  28 H28           -4.0943     1.8096    -3.2185 H       
  29 H29           -5.7752     1.3488    -2.8557 H       
  30 H30           -3.1072    -1.5714    -4.2228 H       
  31 H31           -2.5337     0.1015    -4.0182 H       
  32 H32           -2.3971     0.9407     0.5442 H       
  33 H33           -3.2434    -0.6252     0.5445 H       
  34 H34           -4.4301     0.8505    -5.4677 H       
  35 H35           -4.9012    -0.8598    -5.6134 H       
  36 H36           -6.0772     0.3404    -5.0259 H       
  37 H37            2.1996    -2.6127    -0.0325 H       
  38 H38            3.7491    -1.5117    -0.6323 H       
  39 H39            4.5595     0.0655    -0.4767 H       
  40 H40            3.2823     2.0445    -0.0195 H       
  41 H41           -2.6419    -3.0232    -0.8672 H       
  42 H42            4.2929    -0.0405     1.9862 H       
  43 H43            3.4826    -1.6177     1.8307 H       
  44 H44            5.1963    -1.4494     1.3802 H       
@<TRIPOS>BOND
   1    1   19 1
   2    2   14 1
   3    2   22 1
   4    3   16 1
   5    3   41 1
   6    4   22 2
   7    5    7 1
   8    5    8 1
   9    5   11 1
  10    6    9 1
  11    6   10 1
  12    6   13 1
  13    7    9 1
  14    7   24 1
  15    7   25 1
  16    8   10 1
  17    8   26 1
  18    8   27 1
  19    9   28 1
  20    9   29 1
  21   10   30 1
  22   10   31 1
  23   11   12 1
  24   11   32 1
  25   11   33 1
  26   12   14 ar
  27   12   16 ar
  28   13   34 1
  29   13   35 1
  30   13   36 1
  31   14   15 ar
  32   15   17 1
  33   15   18 ar
  34   16   19 ar
  35   17   20 1
  36   17   21 2
  37   18   19 ar
  38   18   37 1
  39   20   23 1
  40   20   38 1
  41   20   39 1
  42   21   22 1
  43   21   40 1
  44   23   42 1
  45   23   43 1
  46   23   44 1

#	End of record

#	Name: 5389362
#	Creating user name:	landrgr1
#	Creation time:	28. 01. 2015 13:52

#	Modifying user name:	landrgr1
#	Modification time:	28. 01. 2015 13:52

#	Program:	corina 3.48 0006  22.01.2010

@<TRIPOS>MOLECULE
5389362
  45   47    0    0    0
SMALL
NO_CHARGES


@<TRIPOS>ATOM
   1 O1            -0.0136     1.3500    -0.1962 O.3     
   2 O2            -2.3707    -0.0909    -0.1835 O.2     
   3 N3            -3.3143    -6.3613    -0.1169 N.pl3   
   4 N4            -3.5918    -2.2450     0.0793 N.pl3   
   5 N5            -2.3336    -4.2335    -0.0534 N.2     
   6 C6            -1.9938    -6.9914    -0.1907 C.3     
   7 C7            -2.0777    -8.4172     0.3578 C.3     
   8 C8            -3.4194    -4.9983    -0.0512 C.2     
   9 C9            -4.7342    -4.3508     0.0227 C.ar    
  10 C10           -4.7807    -2.9437     0.0881 C.ar    
  11 C11           -1.5288    -7.0320    -1.6478 C.3     
  12 C12           -2.4087    -2.9131     0.0089 C.2     
  13 C13           -2.4214    -8.3710     1.8479 C.3     
  14 C14           -5.9197    -5.0869     0.0301 C.ar    
  15 C15           -1.1638    -2.1378     0.0012 C.2     
  16 C16           -6.0095    -2.3012     0.1584 C.ar    
  17 C17           -7.1192    -4.4343     0.0990 C.ar    
  18 C18           -7.1688    -3.0486     0.1636 C.ar    
  19 C19           -1.2027    -0.7290    -0.0967 C.2     
  20 C20            0.0744    -2.7881     0.0968 C.2     
  21 C21            0.0035    -0.0073    -0.1022 C.2     
  22 C22            1.2311    -2.0654     0.0894 C.2     
  23 C23            1.2032    -0.6789    -0.0124 C.2     
  24 C24            1.2506     2.0163    -0.1957 C.3     
  25 H25           -1.2827    -6.4155     0.4016 H       
  26 H26           -2.8522    -8.9672    -0.1768 H       
  27 H27           -1.1182    -8.9160     0.2215 H       
  28 H28           -4.1141    -6.9100    -0.1146 H       
  29 H29           -1.4690    -6.0162    -2.0386 H       
  30 H30           -0.5463    -7.5009    -1.7027 H       
  31 H31           -2.2399    -7.6079    -2.2402 H       
  32 H32           -3.5992    -1.2759     0.1194 H       
  33 H33           -3.3810    -7.8722     1.9842 H       
  34 H34           -2.4812    -9.3868     2.2387 H       
  35 H35           -1.6469    -7.8211     2.3825 H       
  36 H36           -5.8899    -6.1654    -0.0200 H       
  37 H37           -6.0573    -1.2235     0.2092 H       
  38 H38           -8.0374    -5.0028     0.1048 H       
  39 H39           -8.1253    -2.5503     0.2186 H       
  40 H40            0.1125    -3.8644     0.1769 H       
  41 H41            2.1799    -2.5760     0.1640 H       
  42 H42            2.1294    -0.1235    -0.0170 H       
  43 H43            1.7783     1.7936     0.7316 H       
  44 H44            1.8434     1.6714    -1.0429 H       
  45 H45            1.0943     3.0921    -0.2755 H       
@<TRIPOS>BOND
   1    1   21 1
   2    1   24 1
   3    2   19 2
   4    3    6 1
   5    3    8 1
   6    3   28 1
   7    4   10 1
   8    4   12 1
   9    4   32 1
  10    5    8 2
  11    5   12 1
  12    6    7 1
  13    6   11 1
  14    6   25 1
  15    7   13 1
  16    7   26 1
  17    7   27 1
  18    8    9 1
  19    9   10 ar
  20    9   14 ar
  21   10   16 ar
  22   11   29 1
  23   11   30 1
  24   11   31 1
  25   12   15 2
  26   13   33 1
  27   13   34 1
  28   13   35 1
  29   14   17 ar
  30   14   36 1
  31   15   19 1
  32   15   20 1
  33   16   18 ar
  34   16   37 1
  35   17   18 ar
  36   17   38 1
  37   18   39 1
  38   19   21 1
  39   20   22 2
  40   20   40 1
  41   21   23 2
  42   22   23 1
  43   22   41 1
  44   23   42 1
  45   24   43 1
  46   24   44 1
  47   24   45 1

#	End of record

#	Name: 5389299
#	Creating user name:	landrgr1
#	Creation time:	28. 01. 2015 13:52

#	Modifying user name:	landrgr1
#	Modification time:	28. 01. 2015 13:52

#	Program:	corina 3.48 0006  22.01.2010

@<TRIPOS>MOLECULE
5389299
  62   66    0    0    0
SMALL
NO_CHARGES


@<TRIPOS>ATOM
   1 O1            -0.8400     2.5906    -1.0278 O.3     
   2 O2             5.5106    -1.1029    -2.0868 O.2     
   3 O3             6.9119    -2.1320    -4.4050 O.2     
   4 O4             6.8596    -1.7752    -7.1590 O.3     
   5 N5             4.4695     0.2228    -3.6061 N.am    
   6 N6             1.3693     0.9790    -1.6674 N.3     
   7 N7             4.5256     0.7994    -9.7740 N.pl3   
   8 N8             1.3633    -1.3527    -5.8959 N.ar    
   9 N9             5.0066     1.9100    -9.0720 N.2     
  10 C10            4.5471     0.3888    -5.0604 C.3     
  11 C11            3.5854     0.9715    -2.7095 C.3     
  12 C12            2.2558     0.2282    -2.5665 C.3     
  13 C13            5.5885    -0.5895    -5.5523 C.2     
  14 C14            0.0066     0.4277    -1.6898 C.3     
  15 C15            1.3586     2.4084    -2.0108 C.3     
  16 C16            5.3370    -0.7319    -3.2296 C.2     
  17 C17            3.2119     0.0798    -5.6871 C.ar    
  18 C18            6.0600    -1.2613    -4.4172 C.2     
  19 C19           -0.8668     1.1995    -0.6972 C.3     
  20 C20            0.4717     3.1603    -1.0149 C.3     
  21 C21            5.9942    -0.7831    -6.8604 C.2     
  22 C22            5.4832     0.0915    -7.9254 C.2     
  23 C23            2.6503     0.9509    -6.6084 C.ar    
  24 C24            2.5320    -1.0753    -5.3513 C.ar    
  25 C25            4.8182    -0.3099    -9.0712 C.2     
  26 C26            5.5775     1.5029    -7.9722 C.2     
  27 C27            1.4205     0.6256    -7.1595 C.ar    
  28 C28            4.4838    -1.7272    -9.4594 C.3     
  29 C29            0.7994    -0.5479    -6.7750 C.ar    
  30 C30            3.8479     0.8366   -10.9999 C.ar    
  31 C31            2.8725     1.7985   -11.2267 C.ar    
  32 C32            4.1543    -0.0847   -11.9925 C.ar    
  33 C33            2.2062     1.8326   -12.4360 C.ar    
  34 C34            3.4845    -0.0455   -13.1997 C.ar    
  35 C35            2.5096     0.9101   -13.4204 C.ar    
  36 H36            4.8475     1.4078    -5.3043 H       
  37 H37            4.0559     1.0660    -1.7308 H       
  38 H38            3.4044     1.9637    -3.1229 H       
  39 H39            2.4369    -0.7640    -2.1530 H       
  40 H40            1.7853     0.1337    -3.5451 H       
  41 H41           -0.4090     0.5252    -2.6928 H       
  42 H42            0.0351    -0.6248    -1.4078 H       
  43 H43            2.3740     2.8018    -1.9630 H       
  44 H44            0.9646     2.5376    -3.0188 H       
  45 H45           -0.4820     1.0579     0.3128 H       
  46 H46           -1.8915     0.8320    -0.7518 H       
  47 H47            0.4149     4.2111    -1.2993 H       
  48 H48            0.8954     3.0758    -0.0142 H       
  49 H49            3.1586     1.8613    -6.8897 H       
  50 H50            2.9624    -1.7587    -4.6344 H       
  51 H51            6.0416     2.1327    -7.2277 H       
  52 H52            0.9536     1.2808    -7.8800 H       
  53 H53            7.0839    -1.8322    -8.0979 H       
  54 H54            5.3315    -2.1703    -9.9822 H       
  55 H55            4.2660    -2.3077    -8.5630 H       
  56 H56            3.6122    -1.7286   -10.1140 H       
  57 H57           -0.1588    -0.8086    -7.1997 H       
  58 H58            2.6349     2.5191   -10.4580 H       
  59 H59            4.9158    -0.8311   -11.8209 H       
  60 H60            1.4473     2.5804   -12.6128 H       
  61 H61            3.7224    -0.7618   -13.9722 H       
  62 H62            1.9873     0.9388   -14.3653 H       
@<TRIPOS>BOND
   1    1   19 1
   2    1   20 1
   3    2   16 2
   4    3   18 2
   5    4   21 1
   6    4   53 1
   7    5   10 1
   8    5   11 1
   9    5   16 am
  10    6   12 1
  11    6   14 1
  12    6   15 1
  13    7    9 1
  14    7   25 1
  15    7   30 1
  16    8   24 ar
  17    8   29 ar
  18    9   26 2
  19   10   13 1
  20   10   17 1
  21   10   36 1
  22   11   12 1
  23   11   37 1
  24   11   38 1
  25   12   39 1
  26   12   40 1
  27   13   18 1
  28   13   21 2
  29   14   19 1
  30   14   41 1
  31   14   42 1
  32   15   20 1
  33   15   43 1
  34   15   44 1
  35   16   18 1
  36   17   23 ar
  37   17   24 ar
  38   19   45 1
  39   19   46 1
  40   20   47 1
  41   20   48 1
  42   21   22 1
  43   22   25 2
  44   22   26 1
  45   23   27 ar
  46   23   49 1
  47   24   50 1
  48   25   28 1
  49   26   51 1
  50   27   29 ar
  51   27   52 1
  52   28   54 1
  53   28   55 1
  54   28   56 1
  55   29   57 1
  56   30   31 ar
  57   30   32 ar
  58   31   33 ar
  59   31   58 1
  60   32   34 ar
  61   32   59 1
  62   33   35 ar
  63   33   60 1
  64   34   35 ar
  65   34   61 1
  66   35   62 1

#	End of record

#	Name: 5389286
#	Creating user name:	landrgr1
#	Creation time:	28. 01. 2015 13:52

#	Modifying user name:	landrgr1
#	Modification time:	28. 01. 2015 13:52

#	Program:	corina 3.48 0006  22.01.2010

@<TRIPOS>MOLECULE
5389286
  62   66    0    0    0
SMALL
NO_CHARGES


@<TRIPOS>ATOM
   1 O1             1.3410     2.3788    -0.9257 O.2     
   2 N2            -0.7786     3.0211    -1.0554 N.am    
   3 N3             2.1228     5.0923     2.1493 N.3     
   4 N4             1.3641     5.0839     4.8933 N.3     
   5 N5             4.2876     4.8941     1.2811 N.ar    
   6 N6             3.2574     4.4613    -1.2246 N.ar    
   7 N7             0.3376     6.3497    -2.2869 N.1     
   8 C8            -1.2084     1.6771    -1.4492 C.3     
   9 C9            -2.6558     1.2822    -1.1493 C.3     
  10 C10           -2.2228     1.5655    -2.5891 C.3     
  11 C11            2.6726     6.0853     3.0826 C.3     
  12 C12            1.8263     3.8305     2.8418 C.3     
  13 C13            1.6605     6.3458     4.2008 C.3     
  14 C14            0.8142     4.0909     3.9600 C.3     
  15 C15            0.5244     3.2687    -0.8155 C.2     
  16 C16            0.9666     4.6512    -0.4105 C.3     
  17 C17            2.9834     4.8832     1.0822 C.ar    
  18 C18            2.4593     4.6608    -0.2040 C.ar    
  19 C19            0.4524     5.3054     6.0237 C.3     
  20 C20           -0.0218     3.9770     6.5543 C.2     
  21 C21            5.1168     4.6924     0.2492 C.ar    
  22 C22            4.5845     4.4687    -1.0447 C.ar    
  23 C23            0.6116     5.6099    -1.4696 C.1     
  24 C24            6.5101     4.6976     0.4288 C.ar    
  25 C25            5.4611     4.2571    -2.1218 C.ar    
  26 C26            0.1390     3.6797     7.8362 C.2     
  27 C27            7.3293     4.4892    -0.6386 C.ar    
  28 C28            6.8061     4.2693    -1.9106 C.ar    
  29 C29           -0.3261     2.3767     8.3566 C.ar    
  30 C30           -0.1583     2.0608     9.7054 C.ar    
  31 C31           -0.9399     1.4598     7.5025 C.ar    
  32 C32           -0.5951     0.8431    10.1850 C.ar    
  33 C33           -1.3722     0.2455     7.9947 C.ar    
  34 C34           -1.1981    -0.0638     9.3319 C.ar    
  35 H35           -0.4485     0.8994    -1.3734 H       
  36 H36           -2.8482     0.2445    -0.8765 H       
  37 H37           -3.2882     2.0223    -0.6590 H       
  38 H38           -2.5704     2.4921    -3.0461 H       
  39 H39           -2.1303     0.7143    -3.2636 H       
  40 H40           -1.4311     3.7339    -0.9712 H       
  41 H41            3.5998     5.7062     3.5124 H       
  42 H42            2.8720     7.0146     2.5490 H       
  43 H43            1.4088     3.1158     2.1326 H       
  44 H44            2.7439     3.4257     3.2688 H       
  45 H45            0.7429     6.7505     3.7738 H       
  46 H46            2.0781     7.0604     4.9100 H       
  47 H47            0.6148     3.1616     4.4936 H       
  48 H48           -0.1130     4.4700     3.5302 H       
  49 H49            0.4696     4.9344     0.5174 H       
  50 H50            0.9760     5.8457     6.8123 H       
  51 H51           -0.4048     5.8902     5.6900 H       
  52 H52           -0.4925     3.2672     5.8903 H       
  53 H53            6.9297     4.8665     1.4095 H       
  54 H54            5.0696     4.0850    -3.1135 H       
  55 H55            0.6098     4.3895     8.5002 H       
  56 H56            8.4000     4.4942    -0.4969 H       
  57 H57            7.4769     4.1062    -2.7412 H       
  58 H58            0.3126     2.7677    10.3723 H       
  59 H59           -1.0766     1.7003     6.4586 H       
  60 H60           -0.4655     0.5971    11.2286 H       
  61 H61           -1.8477    -0.4649     7.3348 H       
  62 H62           -1.5379    -1.0158     9.7122 H       
@<TRIPOS>BOND
   1    1   15 2
   2    2    8 1
   3    2   15 am
   4    2   40 1
   5    3   11 1
   6    3   12 1
   7    3   17 1
   8    4   13 1
   9    4   14 1
  10    4   19 1
  11    5   17 ar
  12    5   21 ar
  13    6   18 ar
  14    6   22 ar
  15    7   23 3
  16    8    9 1
  17    8   10 1
  18    8   35 1
  19    9   10 1
  20    9   36 1
  21    9   37 1
  22   10   38 1
  23   10   39 1
  24   11   13 1
  25   11   41 1
  26   11   42 1
  27   12   14 1
  28   12   43 1
  29   12   44 1
  30   13   45 1
  31   13   46 1
  32   14   47 1
  33   14   48 1
  34   15   16 1
  35   16   18 1
  36   16   23 1
  37   16   49 1
  38   17   18 ar
  39   19   20 1
  40   19   50 1
  41   19   51 1
  42   20   26 2
  43   20   52 1
  44   21   22 ar
  45   21   24 ar
  46   22   25 ar
  47   24   27 ar
  48   24   53 1
  49   25   28 ar
  50   25   54 1
  51   26   29 1
  52   26   55 1
  53   27   28 ar
  54   27   56 1
  55   28   57 1
  56   29   30 ar
  57   29   31 ar
  58   30   32 ar
  59   30   58 1
  60   31   33 ar
  61   31   59 1
  62   32   34 ar
  63   32   60 1
  64   33   34 ar
  65   33   61 1
  66   34   62 1

#	End of record

#	Name: 5389285
#	Creating user name:	landrgr1
#	Creation time:	28. 01. 2015 13:52

#	Modifying user name:	landrgr1
#	Modification time:	28. 01. 2015 13:52

#	Program:	corina 3.48 0006  22.01.2010

@<TRIPOS>MOLECULE
5389285
  59   62    0    0    0
SMALL
NO_CHARGES


@<TRIPOS>ATOM
   1 O1             0.0476     1.2659     0.2176 O.3     
   2 O2             2.0782    -2.5976    -1.2781 O.2     
   3 O3             4.0329    -0.8513     0.1921 O.2     
   4 O4             4.2680     2.3807     0.4250 O.3     
   5 O5             3.6795     2.8715    -1.6644 O.2     
   6 N6             4.0836    -0.8599    -2.0957 N.am    
   7 N7             1.2213     3.2393     0.6656 N.pl3   
   8 C8             2.2351     0.1267    -1.1345 C.3     
   9 C9            -1.2683    -2.1420    -0.1521 C.3     
  10 C10            1.1033    -0.6829    -0.5563 C.2     
  11 C11           -1.0401    -0.8803     0.6826 C.3     
  12 C12            0.0321    -2.9521    -0.1732 C.3     
  13 C13            0.0886    -0.0732     0.0850 C.2     
  14 C14            2.1281     0.1973    -2.6259 C.ar    
  15 C15            1.1381    -2.0827    -0.7067 C.2     
  16 C16            2.2675     1.4997    -0.5297 C.2     
  17 C17            3.5504    -0.5826    -0.8877 C.2     
  18 C18           -2.3852    -2.9785     0.4754 C.3     
  19 C19           -1.6535    -1.7510    -1.5802 C.3     
  20 C20            3.2794    -0.4193    -3.1317 C.ar    
  21 C21            1.1730     1.9873     0.1134 C.2     
  22 C22            1.1577     0.7281    -3.4474 C.ar    
  23 C23            3.4287     2.2819    -0.6285 C.2     
  24 C24            3.4764    -0.5169    -4.5097 C.ar    
  25 C25            5.3633    -1.5466    -2.2877 C.3     
  26 C26            1.3667     0.6252    -4.8189 C.ar    
  27 C27            2.4952     0.0183    -5.3301 C.ar    
  28 C28            5.4307     3.1937     0.2541 C.3     
  29 C29            6.2538     3.1842     1.5438 C.3     
  30 C30            7.4986     4.0547     1.3608 C.3     
  31 C31            8.3217     4.0452     2.6506 C.3     
  32 H32           -1.9504    -0.2807     0.6902 H       
  33 H33           -0.7835    -1.1623     1.7037 H       
  34 H34            0.2776    -3.2752     0.8384 H       
  35 H35           -0.0906    -3.8231    -0.8170 H       
  36 H36           -3.3043    -2.3934     0.5055 H       
  37 H37           -2.5455    -3.8765    -0.1212 H       
  38 H38           -2.1014    -3.2616     1.4890 H       
  39 H39           -0.8506    -1.1632    -2.0251 H       
  40 H40           -1.8154    -2.6517    -2.1724 H       
  41 H41           -2.5689    -1.1596    -1.5607 H       
  42 H42            0.2748     1.2022    -3.0448 H       
  43 H43            4.3567    -0.9894    -4.9201 H       
  44 H44            5.7958    -1.7873    -1.3165 H       
  45 H45            5.2016    -2.4655    -2.8512 H       
  46 H46            6.0448    -0.8980    -2.8381 H       
  47 H47            0.6300     1.0288    -5.4977 H       
  48 H48            2.6182    -0.0412    -6.4015 H       
  49 H49            0.4228     3.6287     1.0550 H       
  50 H50            2.0540     3.7368     0.6673 H       
  51 H51            6.0330     2.7990    -0.5642 H       
  52 H52            5.1289     4.2154     0.0232 H       
  53 H53            5.6515     3.5789     2.3621 H       
  54 H54            6.5555     2.1626     1.7747 H       
  55 H55            8.1009     3.6600     0.5425 H       
  56 H56            7.1969     5.0763     1.1299 H       
  57 H57            9.2085     4.6653     2.5202 H       
  58 H58            7.7194     4.4399     3.4688 H       
  59 H59            8.6234     3.0235     2.8815 H       
@<TRIPOS>BOND
   1    1   13 1
   2    1   21 1
   3    2   15 2
   4    3   17 2
   5    4   23 1
   6    4   28 1
   7    5   23 2
   8    6   17 am
   9    6   20 1
  10    6   25 1
  11    7   21 1
  12    7   49 1
  13    7   50 1
  14    8   10 1
  15    8   14 1
  16    8   16 1
  17    8   17 1
  18    9   11 1
  19    9   12 1
  20    9   18 1
  21    9   19 1
  22   10   13 2
  23   10   15 1
  24   11   13 1
  25   11   32 1
  26   11   33 1
  27   12   15 1
  28   12   34 1
  29   12   35 1
  30   14   20 ar
  31   14   22 ar
  32   16   21 2
  33   16   23 1
  34   18   36 1
  35   18   37 1
  36   18   38 1
  37   19   39 1
  38   19   40 1
  39   19   41 1
  40   20   24 ar
  41   22   26 ar
  42   22   42 1
  43   24   27 ar
  44   24   43 1
  45   25   44 1
  46   25   45 1
  47   25   46 1
  48   26   27 ar
  49   26   47 1
  50   27   48 1
  51   28   29 1
  52   28   51 1
  53   28   52 1
  54   29   30 1
  55   29   53 1
  56   29   54 1
  57   30   31 1
  58   30   55 1
  59   30   56 1
  60   31   57 1
  61   31   58 1
  62   31   59 1

#	End of record

#	Name: 5389249
#	Creating user name:	landrgr1
#	Creation time:	28. 01. 2015 13:52

#	Modifying user name:	landrgr1
#	Modification time:	28. 01. 2015 13:52

#	Program:	corina 3.48 0006  22.01.2010

@<TRIPOS>MOLECULE
5389249
  32   33    0    0    0
SMALL
NO_CHARGES


@<TRIPOS>ATOM
   1 Cl1            6.8502     3.7537    -4.9435 Cl      
   2 O2            -0.0161     1.3397     0.0094 O.3     
   3 O3             2.9309     6.2997    -1.3964 O.3     
   4 O4             3.1390    -0.7087    -1.4214 O.2     
   5 O5             1.4109     2.9456     0.6999 O.2     
   6 N6             3.0123     3.5296    -1.5662 N.pl3   
   7 C7             3.8901     4.3190    -2.3167 C.ar    
   8 C8             2.1956     1.4047    -0.9177 C.2     
   9 C9             3.8370     5.7082    -2.2199 C.ar    
  10 C10            3.0653     2.1867    -1.6611 C.2     
  11 C11            4.8202     3.7206    -3.1552 C.ar    
  12 C12            2.1966    -0.0791    -0.9715 C.2     
  13 C13            4.7090     6.4853    -2.9650 C.ar    
  14 C14            0.0021    -0.0041     0.0020 C.2     
  15 C15            1.0303    -0.7235    -0.4664 C.2     
  16 C16            1.1832     1.9755     0.0014 C.2     
  17 C17            5.6869     4.5033    -3.8954 C.ar    
  18 C18            5.6294     5.8830    -3.8023 C.ar    
  19 C19           -1.1947    -0.7387     0.5489 C.3     
  20 C20            2.9338     7.7279    -1.3479 C.3     
  21 H21            2.3655     3.9490    -0.9775 H       
  22 H22            3.7854     1.7197    -2.3166 H       
  23 H23            4.8671     2.6442    -3.2292 H       
  24 H24            4.6694     7.5621    -2.8919 H       
  25 H25            0.9747    -1.8021    -0.4616 H       
  26 H26            6.3080     6.4907    -4.3825 H       
  27 H27           -1.9392    -0.0186     0.8883 H       
  28 H28           -1.6249    -1.3650    -0.2326 H       
  29 H29           -0.8856    -1.3639     1.3866 H       
  30 H30            2.1649     8.0694    -0.6548 H       
  31 H31            3.9091     8.0780    -1.0099 H       
  32 H32            2.7294     8.1256    -2.3419 H       
@<TRIPOS>BOND
   1    1   17 1
   2    2   14 1
   3    2   16 1
   4    3    9 1
   5    3   20 1
   6    4   12 2
   7    5   16 2
   8    6    7 1
   9    6   10 1
  10    6   21 1
  11    7    9 ar
  12    7   11 ar
  13    8   10 2
  14    8   12 1
  15    8   16 1
  16    9   13 ar
  17   10   22 1
  18   11   17 ar
  19   11   23 1
  20   12   15 1
  21   13   18 ar
  22   13   24 1
  23   14   15 2
  24   14   19 1
  25   15   25 1
  26   17   18 ar
  27   18   26 1
  28   19   27 1
  29   19   28 1
  30   19   29 1
  31   20   30 1
  32   20   31 1
  33   20   32 1

#	End of record

#	Name: 5389248
#	Creating user name:	landrgr1
#	Creation time:	28. 01. 2015 13:52

#	Modifying user name:	landrgr1
#	Modification time:	28. 01. 2015 13:52

#	Program:	corina 3.48 0006  22.01.2010

@<TRIPOS>MOLECULE
5389248
  61   64    0    0    0
SMALL
NO_CHARGES


@<TRIPOS>ATOM
   1 Cl1            4.6082     5.0671    -9.4788 Cl      
   2 O2            -1.2428    -2.3991    -2.6868 O.3     
   3 O3             5.9872    -2.7621    -3.3791 O.2     
   4 O4             8.0374    -1.9732    -5.2698 O.2     
   5 O5             4.4575    -2.7521    -6.4954 O.3     
   6 O6             8.2714    -0.2253    -7.4240 O.3     
   7 O7             1.3214    -1.0512    -9.6398 O.3     
   8 N8             4.7748    -1.1272    -4.3819 N.am    
   9 N9             1.4835    -2.5466    -3.3447 N.3     
  10 C10            5.0160    -0.1798    -5.4740 C.3     
  11 C11            3.5355    -1.2362    -3.6083 C.3     
  12 C12            2.6615    -2.3445    -4.1988 C.3     
  13 C13            6.4216    -0.4357    -5.9665 C.2     
  14 C14            0.5054    -3.4296    -3.9964 C.3     
  15 C15            0.8667    -1.2614    -2.9852 C.3     
  16 C16            4.0283    -0.4140    -6.5879 C.ar    
  17 C17            5.8718    -1.8834    -4.2088 C.2     
  18 C18            6.9281    -1.4799    -5.1763 C.2     
  19 C19           -0.6756    -3.6607    -3.0500 C.3     
  20 C20           -0.3179    -1.5142    -2.0489 C.3     
  21 C21            7.0753     0.2235    -6.9876 C.2     
  22 C22            3.7952    -1.7021    -7.0482 C.ar    
  23 C23            3.3513     0.6536    -7.1461 C.ar    
  24 C24            6.4679     1.4168    -7.6014 C.ar    
  25 C25            2.8864    -1.9169    -8.0731 C.ar    
  26 C26            2.4449     0.4421    -8.1670 C.ar    
  27 C27            2.2127    -0.8438    -8.6352 C.ar    
  28 C28            6.1415     2.5243    -6.8115 C.ar    
  29 C29            6.2201     1.4502    -8.9777 C.ar    
  30 C30            4.0816    -4.0594    -6.9332 C.3     
  31 C31            5.5735     3.6374    -7.3925 C.ar    
  32 C32            5.6515     2.5700    -9.5452 C.ar    
  33 C33            5.3251     3.6611    -8.7557 C.ar    
  34 C34            0.6639     0.1007   -10.1718 C.3     
  35 H35            4.9295     0.8428    -5.1069 H       
  36 H36            3.7740    -1.4749    -2.5718 H       
  37 H37            2.9976    -0.2890    -3.6485 H       
  38 H38            3.2349    -3.2700    -4.2518 H       
  39 H39            2.3396    -2.0587    -5.2001 H       
  40 H40            0.1497    -2.9634    -4.9153 H       
  41 H41            0.9764    -4.3843    -4.2306 H       
  42 H42            1.6014    -0.6334    -2.4813 H       
  43 H43            0.5168    -0.7605    -3.8879 H       
  44 H44           -0.3287    -4.1753    -2.1539 H       
  45 H45           -1.4296    -4.2682    -3.5505 H       
  46 H46           -0.8133    -0.5693    -1.8254 H       
  47 H47            0.0394    -1.9664    -1.1238 H       
  48 H48            3.5308     1.6549    -6.7834 H       
  49 H49            2.7039    -2.9187    -8.4330 H       
  50 H50            1.9165     1.2779    -8.6012 H       
  51 H51            8.6512     0.3008    -8.1410 H       
  52 H52            6.3339     2.5070    -5.7489 H       
  53 H53            6.4740     0.6005    -9.5942 H       
  54 H54            4.6262    -4.8065    -6.3559 H       
  55 H55            3.0103    -4.1974    -6.7872 H       
  56 H56            4.3216    -4.1714    -7.9906 H       
  57 H57            5.3210     4.4932    -6.7840 H       
  58 H58            5.4599     2.5973   -10.6077 H       
  59 H59           -0.0189    -0.2045   -10.9647 H       
  60 H60            0.1025     0.5967    -9.3800 H       
  61 H61            1.4064     0.7884   -10.5764 H       
@<TRIPOS>BOND
   1    1   33 1
   2    2   19 1
   3    2   20 1
   4    3   17 2
   5    4   18 2
   6    5   22 1
   7    5   30 1
   8    6   21 1
   9    6   51 1
  10    7   27 1
  11    7   34 1
  12    8   10 1
  13    8   11 1
  14    8   17 am
  15    9   12 1
  16    9   14 1
  17    9   15 1
  18   10   13 1
  19   10   16 1
  20   10   35 1
  21   11   12 1
  22   11   36 1
  23   11   37 1
  24   12   38 1
  25   12   39 1
  26   13   18 1
  27   13   21 2
  28   14   19 1
  29   14   40 1
  30   14   41 1
  31   15   20 1
  32   15   42 1
  33   15   43 1
  34   16   22 ar
  35   16   23 ar
  36   17   18 1
  37   19   44 1
  38   19   45 1
  39   20   46 1
  40   20   47 1
  41   21   24 1
  42   22   25 ar
  43   23   26 ar
  44   23   48 1
  45   24   28 ar
  46   24   29 ar
  47   25   27 ar
  48   25   49 1
  49   26   27 ar
  50   26   50 1
  51   28   31 ar
  52   28   52 1
  53   29   32 ar
  54   29   53 1
  55   30   54 1
  56   30   55 1
  57   30   56 1
  58   31   33 ar
  59   31   57 1
  60   32   33 ar
  61   32   58 1
  62   34   59 1
  63   34   60 1
  64   34   61 1

#	End of record

#	Name: 5389132
#	Creating user name:	landrgr1
#	Creation time:	28. 01. 2015 13:52

#	Modifying user name:	landrgr1
#	Modification time:	28. 01. 2015 13:52

#	Program:	corina 3.48 0006  22.01.2010

@<TRIPOS>MOLECULE
5389132
  23   24    0    0    0
SMALL
NO_CHARGES


@<TRIPOS>ATOM
   1 F1             2.6930     0.5987     0.2845 F       
   2 F2             1.8317     1.5974     2.1500 F       
   3 F3             3.3021     2.7341     0.8214 F       
   4 N4            -0.0168     1.3880     0.0097 N.pl3   
   5 N5            -1.7415     3.0100     0.0162 N.2     
   6 N6             0.0021    -0.0041     0.0020 N.pl3   
   7 N7            -2.0862     0.6296     0.0755 N.2     
   8 C8             1.0864     2.3495     0.0043 C.3     
   9 C9             0.5583     3.6502     0.6308 C.3     
  10 C10           -0.7325     4.0714    -0.0728 C.3     
  11 C11            2.2533     1.8083     0.8328 C.3     
  12 C12           -1.3535     1.7624     0.0360 C.2     
  13 C13           -0.4329     4.3599    -1.5452 C.3     
  14 C14           -1.2981    -0.4125     0.0545 C.2     
  15 H15            1.4115     2.5357    -1.0193 H       
  16 H16            0.3580     3.4878     1.6899 H       
  17 H17            1.3053     4.4361     0.5196 H       
  18 H18           -1.1196     4.9752     0.3979 H       
  19 H19           -1.3464     4.6810    -2.0457 H       
  20 H20            0.3165     5.1482    -1.6158 H       
  21 H21           -0.0555     3.4558    -2.0230 H       
  22 H22            0.7871    -0.5727    -0.0340 H       
  23 H23           -1.6266    -1.4411     0.0751 H       
@<TRIPOS>BOND
   1    1   11 1
   2    2   11 1
   3    3   11 1
   4    4    6 1
   5    4    8 1
   6    4   12 1
   7    5   10 1
   8    5   12 2
   9    6   14 1
  10    6   22 1
  11    7   12 1
  12    7   14 2
  13    8    9 1
  14    8   11 1
  15    8   15 1
  16    9   10 1
  17    9   16 1
  18    9   17 1
  19   10   13 1
  20   10   18 1
  21   13   19 1
  22   13   20 1
  23   13   21 1
  24   14   23 1

#	End of record

#	Name: 5389106
#	Creating user name:	landrgr1
#	Creation time:	28. 01. 2015 13:52

#	Modifying user name:	landrgr1
#	Modification time:	28. 01. 2015 13:52

#	Program:	corina 3.48 0006  22.01.2010

@<TRIPOS>MOLECULE
5389106
  45   46    0    0    0
SMALL
NO_CHARGES


@<TRIPOS>ATOM
   1 O1            -0.0162     1.3433     0.0094 O.3     
   2 O2            -2.4970    -4.2046     0.0033 O.3     
   3 O3             1.0619    -0.5969    -0.0113 O.2     
   4 O4            -3.5751    -2.2644     0.0240 O.2     
   5 C5            -1.2657    -0.7592     0.0101 C.2     
   6 C6            -1.2475    -2.1021     0.0027 C.2     
   7 C7             0.0021    -0.0041     0.0020 C.2     
   8 C8            -2.5153    -2.8573     0.0107 C.2     
   9 H9            -2.2082    -0.2320     0.0219 H       
  10 H10           -0.3050    -2.6293    -0.0091 H       
  11 H11            0.8393     1.7940     0.0037 H       
  12 H12           -3.3525    -4.6553     0.0091 H       
  13 N13            9.2301    16.0135     8.4467 N.pl3   
  14 N14           11.5898    14.5709     8.7424 N.2     
  15 C15            9.2489    14.6249     8.4391 C.2     
  16 C16           10.5226    13.8978     8.4175 C.2     
  17 C17           10.4796    16.7798     8.4389 C.3     
  18 C18           10.5935    12.4414     8.0371 C.3     
  19 C19           11.5586    15.9667     9.1542 C.3     
  20 C20           12.0462    11.9662     8.1067 C.3     
  21 C21            7.9591    14.1878     8.4533 C.2     
  22 C22            7.9490    16.4222     8.4667 C.2     
  23 C23            7.1418    15.3299     8.4680 C.2     
  24 C24           12.1172    10.5098     7.7263 C.ar    
  25 C25           12.3051    10.1488     6.4052 C.ar    
  26 C26           12.0000     9.5348     8.6993 C.ar    
  27 C27           12.3701     8.8128     6.0563 C.ar    
  28 C28           12.0650     8.1988     8.3503 C.ar    
  29 C29           12.2477     7.8378     7.0285 C.ar    
  30 H30           10.7861    16.9687     7.4101 H       
  31 H31           10.3310    17.7266     8.9581 H       
  32 H32            9.9862    11.8556     8.7272 H       
  33 H33           10.2172    12.3122     7.0223 H       
  34 H34           11.3765    16.0113    10.2280 H       
  35 H35           12.5303    16.4150     8.9471 H       
  36 H36           12.6535    12.5520     7.4167 H       
  37 H37           12.4225    12.0955     9.1215 H       
  38 H38            7.6281    13.1598     8.4529 H       
  39 H39            7.6167    17.4498     8.4752 H       
  40 H40            6.0619    15.3381     8.4811 H       
  41 H41           12.4007    10.9106     5.6457 H       
  42 H42           11.8579     9.8169     9.7320 H       
  43 H43           12.5162     8.5308     5.0240 H       
  44 H44           11.9738     7.4371     9.1105 H       
  45 H45           12.2981     6.7940     6.7558 H       
@<TRIPOS>BOND
   1    1    7 1
   2    1   11 1
   3    2    8 1
   4    2   12 1
   5    3    7 2
   6    4    8 2
   7    5    6 2
   8    5    7 1
   9    5    9 1
  10    6    8 1
  11    6   10 1
  12   13   15 1
  13   13   17 1
  14   13   22 1
  15   14   16 2
  16   14   19 1
  17   15   16 1
  18   15   21 2
  19   16   18 1
  20   17   19 1
  21   17   30 1
  22   17   31 1
  23   18   20 1
  24   18   32 1
  25   18   33 1
  26   19   34 1
  27   19   35 1
  28   20   24 1
  29   20   36 1
  30   20   37 1
  31   21   23 1
  32   21   38 1
  33   22   23 2
  34   22   39 1
  35   23   40 1
  36   24   25 ar
  37   24   26 ar
  38   25   27 ar
  39   25   41 1
  40   26   28 ar
  41   26   42 1
  42   27   29 ar
  43   27   43 1
  44   28   29 ar
  45   28   44 1
  46   29   45 1

#	End of record

#	Name: 5389078
#	Creating user name:	landrgr1
#	Creation time:	28. 01. 2015 13:52

#	Modifying user name:	landrgr1
#	Modification time:	28. 01. 2015 13:52

#	Program:	corina 3.48 0006  22.01.2010

@<TRIPOS>MOLECULE
5389078
  36   38    0    0    0
SMALL
NO_CHARGES


@<TRIPOS>ATOM
   1 O1            -0.0565     1.1130    -0.1440 O.3     
   2 O2             2.1473     7.1745    -0.9534 O.3     
   3 O3            -0.9409     3.6365    -0.3182 O.2     
   4 N4             0.0539    -0.0752     0.0472 N.pl3   
   5 C5             2.0947     0.7095     0.0515 C.2     
   6 C6             1.1363     1.7218    -0.1648 C.2     
   7 C7             1.3313    -0.4452     0.1835 C.2     
   8 C8             3.5707     0.8450     0.1210 C.ar    
   9 C9             1.3935     3.1488    -0.3710 C.2     
  10 C10            1.8436    -1.8404     0.4324 C.3     
  11 C11            0.3160     4.0650    -0.4398 C.2     
  12 C12            2.7074     3.6179    -0.4959 C.2     
  13 C13            4.3702     0.3118    -0.8881 C.ar    
  14 C14            4.1621     1.5108     1.1927 C.ar    
  15 C15            0.5827     5.4231    -0.6367 C.2     
  16 C16            2.9454     4.9472    -0.6871 C.2     
  17 C17            1.8894     5.8556    -0.7617 C.2     
  18 C18            5.7425     0.4407    -0.8184 C.ar    
  19 C19            5.5355     1.6338     1.2523 C.ar    
  20 C20            6.3246     1.0976     0.2507 C.ar    
  21 C21            1.0221     8.0532    -1.0151 C.3     
  22 H22           -0.6962    -0.6883     0.0962 H       
  23 H23            1.0027    -2.5317     0.4879 H       
  24 H24            2.5038    -2.1359    -0.3830 H       
  25 H25            2.3949    -1.8627     1.3725 H       
  26 H26            3.5342     2.9253    -0.4404 H       
  27 H27            3.9167    -0.2017    -1.7231 H       
  28 H28            3.5470     1.9301     1.9751 H       
  29 H29           -0.2300     6.1323    -0.6913 H       
  30 H30            3.9617     5.3001    -0.7816 H       
  31 H31            6.3631     0.0275    -1.5997 H       
  32 H32            5.9949     2.1500     2.0823 H       
  33 H33            7.3989     1.1962     0.3013 H       
  34 H34            1.3674     9.0753    -1.1710 H       
  35 H35            0.3755     7.7582    -1.8414 H       
  36 H36            0.4651     7.9966    -0.0798 H       
@<TRIPOS>BOND
   1    1    4 1
   2    1    6 1
   3    2   17 1
   4    2   21 1
   5    3   11 2
   6    4    7 1
   7    4   22 1
   8    5    6 1
   9    5    7 2
  10    5    8 1
  11    6    9 2
  12    7   10 1
  13    8   13 ar
  14    8   14 ar
  15    9   11 1
  16    9   12 1
  17   10   23 1
  18   10   24 1
  19   10   25 1
  20   11   15 1
  21   12   16 2
  22   12   26 1
  23   13   18 ar
  24   13   27 1
  25   14   19 ar
  26   14   28 1
  27   15   17 2
  28   15   29 1
  29   16   17 1
  30   16   30 1
  31   18   20 ar
  32   18   31 1
  33   19   20 ar
  34   19   32 1
  35   20   33 1
  36   21   34 1
  37   21   35 1
  38   21   36 1

#	End of record

#	Name: 5389047
#	Creating user name:	landrgr1
#	Creation time:	28. 01. 2015 13:52

#	Modifying user name:	landrgr1
#	Modification time:	28. 01. 2015 13:52

#	Program:	corina 3.48 0006  22.01.2010

@<TRIPOS>MOLECULE
5389047
  31   32    0    0    0
SMALL
NO_CHARGES


@<TRIPOS>ATOM
   1 S1             0.8004     1.5868    -0.5074 S.3     
   2 S2             3.6627     2.2510    -1.4599 S.2     
   3 S3            -1.4458     1.1268     1.6697 S.3     
   4 O4            -0.5499    -0.7971    -2.2905 O.3     
   5 N5             2.6485    -0.1473    -0.7218 N.am    
   6 N6            -0.8035    -0.5559    -0.9185 N.2     
   7 C7             1.5379    -0.9441    -0.2518 C.3     
   8 C8             0.2774    -0.0944    -0.0438 C.3     
   9 C9             1.2386    -2.0380    -1.2788 C.3     
  10 C10            1.9214    -1.6013     1.0755 C.3     
  11 C11            2.4661     1.1566    -0.9108 C.2     
  12 C12            3.9509    -0.7643    -0.9846 C.3     
  13 C13           -1.9929    -0.7435    -0.4360 C.2     
  14 C14           -2.3893    -0.0864     0.8144 C.2     
  15 C15           -3.5462    -0.3210     1.4959 C.2     
  16 C16           -3.6901     0.4212     2.6459 C.2     
  17 C17           -2.6787     1.2540     2.9168 C.2     
  18 H18           -0.0377    -0.1228     0.9993 H       
  19 H19            2.0447    -2.7716    -1.2736 H       
  20 H20            0.2992    -2.5286    -1.0237 H       
  21 H21            1.1585    -1.5932    -2.2706 H       
  22 H22            2.0407    -0.8335     1.8400 H       
  23 H23            1.1372    -2.2956     1.3772 H       
  24 H24            2.8596    -2.1429     0.9551 H       
  25 H25            3.9923    -1.0979    -2.0215 H       
  26 H26            4.7411    -0.0351    -0.8057 H       
  27 H27            4.0884    -1.6189    -0.3222 H       
  28 H28           -2.6914    -1.3833    -0.9547 H       
  29 H29           -4.2886    -1.0303     1.1610 H       
  30 H30           -4.5573     0.3372     3.2841 H       
  31 H31           -2.6271     1.9079     3.7749 H       
@<TRIPOS>BOND
   1    1    8 1
   2    1   11 1
   3    2   11 2
   4    3   14 1
   5    3   17 1
   6    4    6 1
   7    5    7 1
   8    5   11 am
   9    5   12 1
  10    6    8 1
  11    6   13 2
  12    7    8 1
  13    7    9 1
  14    7   10 1
  15    8   18 1
  16    9   19 1
  17    9   20 1
  18    9   21 1
  19   10   22 1
  20   10   23 1
  21   10   24 1
  22   12   25 1
  23   12   26 1
  24   12   27 1
  25   13   14 1
  26   13   28 1
  27   14   15 2
  28   15   16 1
  29   15   29 1
  30   16   17 2
  31   16   30 1
  32   17   31 1

#	End of record

#	Name: 5389029
#	Creating user name:	landrgr1
#	Creation time:	28. 01. 2015 13:52

#	Modifying user name:	landrgr1
#	Modification time:	28. 01. 2015 13:52

#	Program:	corina 3.48 0006  22.01.2010

@<TRIPOS>MOLECULE
5389029
  35   37    0    0    0
SMALL
NO_CHARGES


@<TRIPOS>ATOM
   1 S1            -0.1274     0.9905    -0.4690 S.3     
   2 O2             4.0818    -0.5836    -0.0280 O.2     
   3 O3             0.1104     0.5358     3.7872 O.2     
   4 N4             4.3950     1.6118    -0.1541 N.am    
   5 N5             0.1674     0.9094     1.1968 N.pl3   
   6 N6             1.3497     0.8264    -0.9469 N.2     
   7 C7             5.9160     3.6027    -1.4667 C.3     
   8 C8             6.4023     2.1521    -1.4321 C.3     
   9 C9             4.3871     3.6288    -1.5275 C.3     
  10 C10            5.8567     1.4646    -0.1765 C.3     
  11 C11            3.8186     2.9580    -0.2730 C.3     
  12 C12            3.5979     0.5318    -0.0325 C.2     
  13 C13            2.1377     0.7031     0.0952 C.2     
  14 C14            1.4963     0.7462     1.3296 C.2     
  15 C15            2.1862     0.6287     2.6202 C.2     
  16 C16            1.4436     0.5259     3.8190 C.2     
  17 C17            3.5840     0.6116     2.6739 C.2     
  18 C18            2.1199     0.4142     5.0395 C.2     
  19 C19            4.2246     0.5008     3.8868 C.2     
  20 C20            3.4955     0.4052     5.0649 C.2     
  21 H21            6.2526     4.1200    -0.5682 H       
  22 H22            6.3230     4.1013    -2.3464 H       
  23 H23            6.0452     1.6275    -2.3183 H       
  24 H24            7.4920     2.1340    -1.4124 H       
  25 H25            4.0424     4.6617    -1.5757 H       
  26 H26            4.0490     3.0903    -2.4128 H       
  27 H27            6.2846     1.9313     0.7108 H       
  28 H28            6.1171     0.4064    -0.1969 H       
  29 H29            2.7343     2.8852    -0.3571 H       
  30 H30            4.0803     3.5465     0.6064 H       
  31 H31           -0.4879     0.9687     1.9095 H       
  32 H32            4.1603     0.6851     1.7635 H       
  33 H33            1.5621     0.3355     5.9610 H       
  34 H34            5.3039     0.4877     3.9228 H       
  35 H35            4.0129     0.3191     6.0090 H       
@<TRIPOS>BOND
   1    1    5 1
   2    1    6 1
   3    2   12 2
   4    3   16 2
   5    4   10 1
   6    4   11 1
   7    4   12 am
   8    5   14 1
   9    5   31 1
  10    6   13 2
  11    7    8 1
  12    7    9 1
  13    7   21 1
  14    7   22 1
  15    8   10 1
  16    8   23 1
  17    8   24 1
  18    9   11 1
  19    9   25 1
  20    9   26 1
  21   10   27 1
  22   10   28 1
  23   11   29 1
  24   11   30 1
  25   12   13 1
  26   13   14 1
  27   14   15 2
  28   15   16 1
  29   15   17 1
  30   16   18 1
  31   17   19 2
  32   17   32 1
  33   18   20 2
  34   18   33 1
  35   19   20 1
  36   19   34 1
  37   20   35 1

#	End of record

#	Name: 5379282
#	Creating user name:	landrgr1
#	Creation time:	28. 01. 2015 13:52

#	Modifying user name:	landrgr1
#	Modification time:	28. 01. 2015 13:52

#	Program:	corina 3.48 0006  22.01.2010

@<TRIPOS>MOLECULE
5379282
  44   46    0    0    0
SMALL
NO_CHARGES


@<TRIPOS>ATOM
   1 O1             0.3251     1.1089     1.5953 O.3     
   2 O2            -0.9512    -6.5082    -0.0169 O.2     
   3 O3            -1.9937    -0.2894     1.3383 O.2     
   4 N4            -2.1014    -4.3909     0.6988 N.pl3   
   5 N5            -1.9667    -8.4705    -0.2450 N.am    
   6 C6            -3.2931    -5.0969     0.5686 C.ar    
   7 C7            -3.2734    -6.4549     0.2141 C.ar    
   8 C8            -4.5078    -4.4633     0.7943 C.ar    
   9 C9            -1.9893    -7.1414    -0.0225 C.2     
  10 C10           -4.4764    -7.1521     0.0872 C.ar    
  11 C11           -0.9303    -2.3545     1.0356 C.2     
  12 C12           -2.1260    -3.0628     0.9049 C.2     
  13 C13           -5.6892    -5.1662     0.6654 C.ar    
  14 C14           -5.6732    -6.5049     0.3101 C.ar    
  15 C15           -0.7442    -9.1370    -0.3753 C.ar    
  16 C16           -0.9386    -0.9043     1.2610 C.2     
  17 C17            0.3155    -3.0193     0.9594 C.2     
  18 C18            0.2966    -0.2350     1.3862 C.2     
  19 C19            1.4690    -2.3144     1.0886 C.2     
  20 C20            1.4623    -0.9371     1.2969 C.2     
  21 C21           -0.6007   -10.4295     0.1125 C.ar    
  22 C22            0.3274    -8.5100    -0.9978 C.ar    
  23 C23            0.6078   -11.0851    -0.0182 C.ar    
  24 C24            1.5332    -9.1711    -1.1253 C.ar    
  25 C25            1.6744   -10.4558    -0.6335 C.ar    
  26 C26            1.6114     1.7201     1.7123 C.3     
  27 H27           -1.2527    -4.8570     0.6408 H       
  28 H28           -4.5285    -3.4196     1.0713 H       
  29 H29           -4.4694    -8.1970    -0.1856 H       
  30 H30           -3.0710    -2.5439     0.9695 H       
  31 H31           -6.6315    -4.6691     0.8423 H       
  32 H32           -6.6029    -7.0456     0.2111 H       
  33 H33           -2.7984    -8.9648    -0.3147 H       
  34 H34            0.3495    -4.0868     0.7989 H       
  35 H35            2.4139    -2.8340     1.0289 H       
  36 H36            2.4020    -0.4137     1.3939 H       
  37 H37           -1.4332   -10.9212     0.5938 H       
  38 H38            0.2177    -7.5066    -1.3822 H       
  39 H39            0.7200   -12.0901     0.3609 H       
  40 H40            2.3669    -8.6842    -1.6093 H       
  41 H41            2.6186   -10.9706    -0.7341 H       
  42 H42            1.4913     2.7909     1.8765 H       
  43 H43            2.1469     1.2813     2.5542 H       
  44 H44            2.1773     1.5542     0.7956 H       
@<TRIPOS>BOND
   1    1   18 1
   2    1   26 1
   3    2    9 2
   4    3   16 2
   5    4    6 1
   6    4   12 1
   7    4   27 1
   8    5    9 am
   9    5   15 1
  10    5   33 1
  11    6    7 ar
  12    6    8 ar
  13    7    9 1
  14    7   10 ar
  15    8   13 ar
  16    8   28 1
  17   10   14 ar
  18   10   29 1
  19   11   12 2
  20   11   16 1
  21   11   17 1
  22   12   30 1
  23   13   14 ar
  24   13   31 1
  25   14   32 1
  26   15   21 ar
  27   15   22 ar
  28   16   18 1
  29   17   19 2
  30   17   34 1
  31   18   20 2
  32   19   20 1
  33   19   35 1
  34   20   36 1
  35   21   23 ar
  36   21   37 1
  37   22   24 ar
  38   22   38 1
  39   23   25 ar
  40   23   39 1
  41   24   25 ar
  42   24   40 1
  43   25   41 1
  44   26   42 1
  45   26   43 1
  46   26   44 1

#	End of record

#	Name: 5376915
#	Creating user name:	landrgr1
#	Creation time:	28. 01. 2015 13:52

#	Modifying user name:	landrgr1
#	Modification time:	28. 01. 2015 13:52

#	Program:	corina 3.48 0006  22.01.2010

@<TRIPOS>MOLECULE
5376915
  26   26    0    0    0
SMALL
NO_CHARGES


@<TRIPOS>ATOM
   1 Br1            6.5596    -5.0735    -0.0877 Br      
   2 O2             0.1547    -2.6996    -0.0139 O.2     
   3 N3            -0.0164     1.3609     0.0095 N.pl3   
   4 C4             2.4926    -2.7986    -0.0368 C.ar    
   5 C5             1.2012    -2.0762    -0.0206 C.2     
   6 C6             0.0021    -0.0041     0.0020 C.2     
   7 C7             1.1820    -0.6641    -0.0128 C.2     
   8 C8             2.5146    -4.1941    -0.0445 C.ar    
   9 C9             3.6932    -2.0870    -0.0502 C.ar    
  10 C10            1.2422     2.1106     0.0015 C.3     
  11 C11           -1.2950     2.0761     0.0195 C.3     
  12 C12            3.7213    -4.8618    -0.0595 C.ar    
  13 C13            4.8937    -2.7658    -0.0652 C.ar    
  14 C14            4.9093    -4.1504    -0.0670 C.ar    
  15 H15           -0.9258    -0.5567     0.0079 H       
  16 H16            2.1099    -0.1114    -0.0187 H       
  17 H17            1.5887    -4.7499    -0.0383 H       
  18 H18            3.6822    -1.0071    -0.0492 H       
  19 H19            1.5445     2.3020    -1.0280 H       
  20 H20            1.1039     3.0583     0.5218 H       
  21 H21            2.0146     1.5291     0.5049 H       
  22 H22           -2.1138     1.3566     0.0194 H       
  23 H23           -1.3570     2.6970     0.9131 H       
  24 H24           -1.3654     2.7067    -0.8668 H       
  25 H25            3.7396    -5.9416    -0.0652 H       
  26 H26            5.8234    -2.2163    -0.0756 H       
@<TRIPOS>BOND
   1    1   14 1
   2    2    5 2
   3    3    6 1
   4    3   10 1
   5    3   11 1
   6    4    5 1
   7    4    8 ar
   8    4    9 ar
   9    5    7 1
  10    6    7 2
  11    6   15 1
  12    7   16 1
  13    8   12 ar
  14    8   17 1
  15    9   13 ar
  16    9   18 1
  17   10   19 1
  18   10   20 1
  19   10   21 1
  20   11   22 1
  21   11   23 1
  22   11   24 1
  23   12   14 ar
  24   12   25 1
  25   13   14 ar
  26   13   26 1

#	End of record

#	Name: 5369163
#	Creating user name:	landrgr1
#	Creation time:	28. 01. 2015 13:52

#	Modifying user name:	landrgr1
#	Modification time:	28. 01. 2015 13:52

#	Program:	corina 3.48 0006  22.01.2010

@<TRIPOS>MOLECULE
5369163
  23   23    0    0    0
SMALL
NO_CHARGES


@<TRIPOS>ATOM
   1 Br1            2.6899     3.4246    -0.0052 Br      
   2 S2            -0.0218     1.7540     0.0117 S.3     
   3 O3            -1.0497    -2.0839     0.0000 O.2     
   4 N4            -4.8181    -0.5467     0.0444 N.pl3   
   5 C5             0.0021    -0.0041     0.0020 C.2     
   6 C6            -3.5666    -1.0980     0.0294 C.2     
   7 C7            -1.1819    -0.8715     0.0082 C.2     
   8 C8            -2.4780    -0.3005     0.0237 C.2     
   9 C9            -4.9769     0.9096     0.0542 C.3     
  10 C10           -5.9999    -1.4125     0.0506 C.3     
  11 C11            1.2991    -0.4337    -0.0127 C.2     
  12 C12            2.2125     0.5938    -0.0159 C.2     
  13 C13            1.6829     1.8241    -0.0042 C.2     
  14 H14           -3.4495    -2.1716     0.0222 H       
  15 H15           -2.5951     0.7731     0.0310 H       
  16 H16           -4.5139     1.3316    -0.8378 H       
  17 H17           -6.0378     1.1593     0.0657 H       
  18 H18           -4.4971     1.3215     0.9421 H       
  19 H19           -6.2833    -1.6331     1.0797 H       
  20 H20           -6.8237    -0.9063    -0.4526 H       
  21 H21           -5.7719    -2.3422    -0.4707 H       
  22 H22            1.5790    -1.4768    -0.0204 H       
  23 H23            3.2787     0.4217    -0.0266 H       
@<TRIPOS>BOND
   1    1   13 1
   2    2    5 1
   3    2   13 1
   4    3    7 2
   5    4    6 1
   6    4    9 1
   7    4   10 1
   8    5    7 1
   9    5   11 2
  10    6    8 2
  11    6   14 1
  12    7    8 1
  13    8   15 1
  14    9   16 1
  15    9   17 1
  16    9   18 1
  17   10   19 1
  18   10   20 1
  19   10   21 1
  20   11   12 1
  21   11   22 1
  22   12   13 2
  23   12   23 1

#	End of record

#	Name: 5367700
#	Creating user name:	landrgr1
#	Creation time:	28. 01. 2015 13:52

#	Modifying user name:	landrgr1
#	Modification time:	28. 01. 2015 13:52

#	Program:	corina 3.48 0006  22.01.2010

@<TRIPOS>MOLECULE
5367700
  40   41    0    0    0
SMALL
NO_CHARGES


@<TRIPOS>ATOM
   1 O1             6.9109    -1.0026     5.5930 O.2     
   2 O2             6.2381     1.1285     1.4926 O.2     
   3 O3            10.2377     0.8999     3.3767 O.2     
   4 N4             0.1495     1.5637    -0.1662 N.3     
   5 N5             4.2348    -0.0553     2.5491 N.pl3   
   6 N6             8.6060    -0.0505     4.4951 N.am    
   7 N7             8.2658     1.0271     2.4218 N.am    
   8 C8             2.1266     0.0692     1.3156 C.3     
   9 C9             0.6351    -0.2701     1.3835 C.3     
  10 C10            2.2893     1.5639     1.0260 C.3     
  11 C11           -0.0336     0.1252     0.0649 C.3     
  12 C12            1.5727     1.9060    -0.2822 C.3     
  13 C13            2.7890    -0.2675     2.6531 C.3     
  14 C14            5.0287    -0.2900     3.6130 C.2     
  15 C15            6.3751     0.0178     3.5521 C.2     
  16 C16            7.3054    -0.3849     4.6219 C.2     
  17 C17            6.9431     0.7625     2.4141 C.2     
  18 C18            9.0541     0.6294     3.4303 C.2     
  19 C19            9.5495    -0.4340     5.5482 C.3     
  20 C20            8.8544     1.7659     1.3020 C.3     
  21 H21            2.5959    -0.5092     0.5198 H       
  22 H22            0.5125    -1.3408     1.5470 H       
  23 H23            0.1739     0.2791     2.2043 H       
  24 H24            1.8542     2.1420     1.8412 H       
  25 H25            3.3487     1.8036     0.9342 H       
  26 H26           -1.0984    -0.1020     0.1152 H       
  27 H27            0.4187    -0.4346    -0.7538 H       
  28 H28            2.0175     1.3379    -1.0992 H       
  29 H29            1.6745     2.9724    -0.4840 H       
  30 H30            2.5918    -1.3098     2.9039 H       
  31 H31            2.3823     0.3769     3.4324 H       
  32 H32           -0.3630     1.8672    -0.9807 H       
  33 H33            4.6208     0.2541     1.7148 H       
  34 H34            4.6129    -0.7185     4.5130 H       
  35 H35            9.0185    -0.9717     6.3336 H       
  36 H36           10.3227    -1.0765     5.1269 H       
  37 H37           10.0094     0.4608     5.9675 H       
  38 H38            8.0766     2.0084     0.5779 H       
  39 H39            9.3064     2.6864     1.6716 H       
  40 H40            9.6180     1.1528     0.8234 H       
@<TRIPOS>BOND
   1    1   16 2
   2    2   17 2
   3    3   18 2
   4    4   11 1
   5    4   12 1
   6    4   32 1
   7    5   13 1
   8    5   14 1
   9    5   33 1
  10    6   16 am
  11    6   18 am
  12    6   19 1
  13    7   17 am
  14    7   18 am
  15    7   20 1
  16    8    9 1
  17    8   10 1
  18    8   13 1
  19    8   21 1
  20    9   11 1
  21    9   22 1
  22    9   23 1
  23   10   12 1
  24   10   24 1
  25   10   25 1
  26   11   26 1
  27   11   27 1
  28   12   28 1
  29   12   29 1
  30   13   30 1
  31   13   31 1
  32   14   15 2
  33   14   34 1
  34   15   16 1
  35   15   17 1
  36   19   35 1
  37   19   36 1
  38   19   37 1
  39   20   38 1
  40   20   39 1
  41   20   40 1

#	End of record

#	Name: 5367179
#	Creating user name:	landrgr1
#	Creation time:	28. 01. 2015 13:52

#	Modifying user name:	landrgr1
#	Modification time:	28. 01. 2015 13:52

#	Program:	corina 3.48 0006  22.01.2010

@<TRIPOS>MOLECULE
5367179
  39   42    0    0    0
SMALL
NO_CHARGES


@<TRIPOS>ATOM
   1 O1             0.0286     1.4751    -0.1233 O.3     
   2 N2             1.7019    -1.5748    -0.3088 N.2     
   3 N3             3.5189     0.8881    -0.0315 N.2     
   4 N4             0.0122     0.0607    -0.0723 N.pl3   
   5 N5             1.3764     1.8993    -0.1245 N.2     
   6 C6             3.0392    -2.1265    -0.3062 C.3     
   7 C7             3.9467    -1.4692     0.7230 C.3     
   8 C8             2.9558    -3.6015    -0.0090 C.ar    
   9 C9             3.6525    -1.9401    -1.6954 C.3     
  10 C10            4.2358    -0.0492     0.4018 C.2     
  11 C11            1.3161    -0.3609    -0.1541 C.2     
  12 C12            5.6365     0.3371     0.6362 C.ar    
  13 C13            1.7395    -4.1740     0.3132 C.ar    
  14 C14            4.0946    -4.3832    -0.0641 C.ar    
  15 C15            2.1585     0.8540    -0.0900 C.2     
  16 C16            1.6629    -5.5270     0.5858 C.ar    
  17 C17            4.0181    -5.7362     0.2085 C.ar    
  18 C18            6.4299    -0.3994     1.5215 C.ar    
  19 C19            6.1825     1.4390    -0.0297 C.ar    
  20 C20            2.8027    -6.3077     0.5359 C.ar    
  21 C21            7.7413    -0.0312     1.7358 C.ar    
  22 C22            7.4956     1.7945     0.1953 C.ar    
  23 C23            8.2728     1.0641     1.0774 C.ar    
  24 H24            3.4659    -1.5189     1.6999 H       
  25 H25            4.8868    -2.0192     0.7665 H       
  26 H26            3.6919    -0.8777    -1.9357 H       
  27 H27            4.6614    -2.3526    -1.7054 H       
  28 H28            3.0412    -2.4574    -2.4348 H       
  29 H29            0.8490    -3.5641     0.3522 H       
  30 H30            5.0440    -3.9368    -0.3205 H       
  31 H31            0.7128    -5.9741     0.8382 H       
  32 H32            4.9077    -6.3470     0.1651 H       
  33 H33           -0.7724    -0.5042     0.0059 H       
  34 H34            6.0165    -1.2540     2.0363 H       
  35 H35            5.5775     2.0097    -0.7186 H       
  36 H36            2.7429    -7.3647     0.7492 H       
  37 H37            8.3552    -0.5986     2.4195 H       
  38 H38            7.9188     2.6452    -0.3182 H       
  39 H39            9.3006     1.3475     1.2494 H       
@<TRIPOS>BOND
   1    1    4 1
   2    1    5 1
   3    2    6 1
   4    2   11 2
   5    3   10 2
   6    3   15 1
   7    4   11 1
   8    4   33 1
   9    5   15 2
  10    6    7 1
  11    6    8 1
  12    6    9 1
  13    7   10 1
  14    7   24 1
  15    7   25 1
  16    8   13 ar
  17    8   14 ar
  18    9   26 1
  19    9   27 1
  20    9   28 1
  21   10   12 1
  22   11   15 1
  23   12   18 ar
  24   12   19 ar
  25   13   16 ar
  26   13   29 1
  27   14   17 ar
  28   14   30 1
  29   16   20 ar
  30   16   31 1
  31   17   20 ar
  32   17   32 1
  33   18   21 ar
  34   18   34 1
  35   19   22 ar
  36   19   35 1
  37   20   36 1
  38   21   23 ar
  39   21   37 1
  40   22   23 ar
  41   22   38 1
  42   23   39 1

#	End of record

#	Name: 5358907
#	Creating user name:	landrgr1
#	Creation time:	28. 01. 2015 13:52

#	Modifying user name:	landrgr1
#	Modification time:	28. 01. 2015 13:52

#	Program:	corina 3.48 0006  22.01.2010

@<TRIPOS>MOLECULE
5358907
  48   49    0    0    0
SMALL
NO_CHARGES


@<TRIPOS>ATOM
   1 O1             0.0097    -3.2548     0.9088 O.3     
   2 O2            -5.4037    -2.4318     0.2744 O.3     
   3 O3            -1.9401    -3.9783     0.1331 O.2     
   4 O4            -3.7611    -3.5306     1.2851 O.2     
   5 C5            -1.8363    -1.6877     0.5653 C.2     
   6 C6            -3.1425    -1.5007     0.3149 C.2     
   7 C7            -1.2637    -3.0470     0.5203 C.2     
   8 C8            -4.1177    -2.5539     0.6576 C.2     
   9 H9            -1.2051    -0.8433     0.7995 H       
  10 H10           -3.4792    -0.5794    -0.1372 H       
  11 H11            0.3406    -4.1622     0.8617 H       
  12 H12           -6.0054    -3.1472     0.5220 H       
  13 N13            7.1184    11.6381    10.2977 N.3     
  14 N14           10.8727    13.3537     9.4011 N.pl3   
  15 C15            7.5979     9.6951     8.9097 C.3     
  16 C16            7.1384    10.1666    10.2896 C.3     
  17 C17            8.8666    10.4086     8.5179 C.ar    
  18 C18            8.4873    12.1638    10.2874 C.3     
  19 C19            9.2765    11.5573     9.1571 C.ar    
  20 C20            7.8502     8.2098     8.9470 C.ar    
  21 C21           10.4546    12.1865     8.7580 C.ar    
  22 C22            9.6293     9.8820     7.4854 C.ar    
  23 C23            6.3673    12.1481    11.4525 C.3     
  24 C24           11.2128    11.6575     7.7240 C.ar    
  25 C25           10.7972    10.5031     7.0895 C.ar    
  26 C26            7.1353     7.3663     8.1173 C.ar    
  27 C27            8.8004     7.6915     9.8068 C.ar    
  28 C28            7.3667     6.0039     8.1515 C.ar    
  29 C29            9.0318     6.3291     9.8410 C.ar    
  30 C30            8.3132     5.4850     9.0151 C.ar    
  31 H31            6.8207     9.9103     8.1764 H       
  32 H32            7.8314     9.8056    11.0495 H       
  33 H33            6.1374     9.7857    10.4921 H       
  34 H34            8.4565    13.2465    10.1650 H       
  35 H35            8.9720    11.9250    11.2341 H       
  36 H36            9.3071     8.9794     6.9877 H       
  37 H37            6.8357    11.7999    12.3731 H       
  38 H38            6.3683    13.2379    11.4341 H       
  39 H39            5.3406    11.7849    11.4073 H       
  40 H40           12.1253    12.1464     7.4163 H       
  41 H41           11.3853    10.0866     6.2851 H       
  42 H42            6.3958     7.7717     7.4426 H       
  43 H43            9.3623     8.3510    10.4516 H       
  44 H44           10.3435    13.7252    10.1242 H       
  45 H45           11.6922    13.7929     9.1246 H       
  46 H46            6.8077     5.3448     7.5038 H       
  47 H47            9.7745     5.9242    10.5125 H       
  48 H48            8.4937     4.4206     9.0420 H       
@<TRIPOS>BOND
   1    1    7 1
   2    1   11 1
   3    2    8 1
   4    2   12 1
   5    3    7 2
   6    4    8 2
   7    5    6 2
   8    5    7 1
   9    5    9 1
  10    6    8 1
  11    6   10 1
  12   13   16 1
  13   13   18 1
  14   13   23 1
  15   14   21 1
  16   14   44 1
  17   14   45 1
  18   15   16 1
  19   15   17 1
  20   15   20 1
  21   15   31 1
  22   16   32 1
  23   16   33 1
  24   17   19 ar
  25   17   22 ar
  26   18   19 1
  27   18   34 1
  28   18   35 1
  29   19   21 ar
  30   20   26 ar
  31   20   27 ar
  32   21   24 ar
  33   22   25 ar
  34   22   36 1
  35   23   37 1
  36   23   38 1
  37   23   39 1
  38   24   25 ar
  39   24   40 1
  40   25   41 1
  41   26   28 ar
  42   26   42 1
  43   27   29 ar
  44   27   43 1
  45   28   30 ar
  46   28   46 1
  47   29   30 ar
  48   29   47 1
  49   30   48 1

#	End of record

#	Name: 5356867
#	Creating user name:	landrgr1
#	Creation time:	28. 01. 2015 13:52

#	Modifying user name:	landrgr1
#	Modification time:	28. 01. 2015 13:52

#	Program:	corina 3.48 0006  22.01.2010

@<TRIPOS>MOLECULE
5356867
  25   25    0    0    0
SMALL
NO_CHARGES


@<TRIPOS>ATOM
   1 O1            -0.0164     1.3548     0.0095 O.3     
   2 O2             0.0255    -4.3930    -3.7592 O.3     
   3 N3             0.0689    -6.1248    -1.7030 N.pl3   
   4 N4             0.0321    -3.9278    -2.4218 N.2     
   5 C5             0.0396    -2.7702    -0.0132 C.ar    
   6 C6             0.0600    -4.2770    -0.0210 C.3     
   7 C7            -1.1677    -2.0964     0.0019 C.ar    
   8 C8             1.2282    -2.0638    -0.0155 C.ar    
   9 C9             0.0021    -0.0041     0.0020 C.ar    
  10 C10           -1.1891    -0.7152     0.0096 C.ar    
  11 C11            1.2122    -0.6825    -0.0079 C.ar    
  12 C12            0.0530    -4.7721    -1.4443 C.2     
  13 C13            1.2479     2.0208     0.0010 C.3     
  14 H14            0.9598    -4.6308     0.4823 H       
  15 H15           -0.8199    -4.6550     0.4995 H       
  16 H16           -2.0947    -2.6504     0.0075 H       
  17 H17            2.1700    -2.5924    -0.0228 H       
  18 H18           -2.1324    -0.1893     0.0210 H       
  19 H19            2.1409    -0.1312    -0.0100 H       
  20 H20            0.0644    -6.4434    -2.6191 H       
  21 H21            0.0847    -6.7587    -0.9690 H       
  22 H22            1.8173     1.7308     0.8840 H       
  23 H23            1.8003     1.7403    -0.8958 H       
  24 H24            1.0905     3.0993     0.0083 H       
  25 H25            0.0095    -3.6880    -4.4208 H       
@<TRIPOS>BOND
   1    1    9 1
   2    1   13 1
   3    2    4 1
   4    2   25 1
   5    3   12 1
   6    3   20 1
   7    3   21 1
   8    4   12 2
   9    5    6 1
  10    5    7 ar
  11    5    8 ar
  12    6   12 1
  13    6   14 1
  14    6   15 1
  15    7   10 ar
  16    7   16 1
  17    8   11 ar
  18    8   17 1
  19    9   10 ar
  20    9   11 ar
  21   10   18 1
  22   11   19 1
  23   13   22 1
  24   13   23 1
  25   13   24 1

#	End of record

#	Name: 5354558
#	Creating user name:	landrgr1
#	Creation time:	28. 01. 2015 13:52

#	Modifying user name:	landrgr1
#	Modification time:	28. 01. 2015 13:52

#	Program:	corina 3.48 0006  22.01.2010

@<TRIPOS>MOLECULE
5354558
  29   29    0    0    0
SMALL
NO_CHARGES


@<TRIPOS>ATOM
   1 O1             0.2613     0.9725     0.9138 O.3     
   2 O2             1.0869    -1.0841     0.7605 O.2     
   3 O3            -3.8336    -5.8478    -0.4164 O.3     
   4 N4            -2.3575    -0.2085     0.3511 N.2     
   5 N5            -3.0538    -4.6787    -0.2433 N.pl3   
   6 C6            -1.4911    -2.2494     0.2066 C.2     
   7 C7            -2.8861    -2.3243    -0.0180 C.2     
   8 C8            -3.3672    -0.9948     0.0889 C.2     
   9 C9            -1.2122    -0.9126     0.4313 C.2     
  10 C10           -0.5092    -3.3925     0.2025 C.3     
  11 C11           -4.8015    -0.5618    -0.0726 C.3     
  12 C12           -3.6354    -3.4724    -0.2897 C.2     
  13 C13            0.1171    -0.3526     0.7114 C.2     
  14 C14            1.6034     1.4557     1.1854 C.3     
  15 C15            1.5686     2.9720     1.3864 C.3     
  16 H16           -0.5471    -3.9006    -0.7611 H       
  17 H17            0.4967    -3.0080     0.3712 H       
  18 H18           -0.7669    -4.0957     0.9944 H       
  19 H19           -4.8728     0.5174     0.0628 H       
  20 H20           -5.1508    -0.8266    -1.0706 H       
  21 H21           -5.4186    -1.0630     0.6731 H       
  22 H22           -4.6832    -3.3873    -0.5371 H       
  23 H23            1.9858     0.9782     2.0875 H       
  24 H24            2.2532     1.2155     0.3438 H       
  25 H25           -2.0985    -4.7510    -0.0912 H       
  26 H26            1.1862     3.4494     0.4843 H       
  27 H27            0.9188     3.2121     2.2280 H       
  28 H28            2.5761     3.3347     1.5903 H       
  29 H29           -3.3266    -6.6697    -0.3668 H       
@<TRIPOS>BOND
   1    1   13 1
   2    1   14 1
   3    2   13 2
   4    3    5 1
   5    3   29 1
   6    4    8 2
   7    4    9 1
   8    5   12 1
   9    5   25 1
  10    6    7 1
  11    6    9 2
  12    6   10 1
  13    7    8 1
  14    7   12 2
  15    8   11 1
  16    9   13 1
  17   10   16 1
  18   10   17 1
  19   10   18 1
  20   11   19 1
  21   11   20 1
  22   11   21 1
  23   12   22 1
  24   14   15 1
  25   14   23 1
  26   14   24 1
  27   15   26 1
  28   15   27 1
  29   15   28 1

#	End of record

#	Name: 5350170
#	Creating user name:	landrgr1
#	Creation time:	28. 01. 2015 13:52

#	Modifying user name:	landrgr1
#	Modification time:	28. 01. 2015 13:52

#	Program:	corina 3.48 0006  22.01.2010

@<TRIPOS>MOLECULE
5350170
  37   39    0    0    0
SMALL
NO_CHARGES


@<TRIPOS>ATOM
   1 O1             1.1245    -0.5565    -0.0938 O.2     
   2 N2            -0.0162     1.3436     0.0094 N.am    
   3 C3            -1.0676    -2.3849     0.1222 C.3     
   4 C4            -1.3909    -1.5939     1.3587 C.3     
   5 C5            -1.2135    -0.8216     0.1312 C.3     
   6 C6            -1.8651    -2.9268    -1.0716 C.3     
   7 C7            -2.5317    -1.9865     2.2346 C.2     
   8 C8             0.0503    -0.0026     0.0074 C.2     
   9 C9            -3.3272    -3.2062    -0.6088 C.3     
  10 C10           -3.9734    -1.8911    -0.4328 C.3     
  11 C11           -3.8002    -1.6816     1.9059 C.2     
  12 C12           -4.1644    -0.9435     0.6399 C.3     
  13 C13            1.1595     2.1021    -0.0076 C.ar    
  14 C14            2.2668     1.6535    -0.7154 C.ar    
  15 C15            1.2195     3.3079     0.6787 C.ar    
  16 C16            3.4258     2.4046    -0.7302 C.ar    
  17 C17            2.3815     4.0543     0.6599 C.ar    
  18 C18            3.4842     3.6021    -0.0412 C.ar    
  19 H19           -0.0756    -2.8239     0.1560 H       
  20 H20           -0.5035    -1.4558     1.9835 H       
  21 H21           -2.0848    -0.3907    -0.3550 H       
  22 H22           -1.8734    -2.1906    -1.8703 H       
  23 H23           -1.4151    -3.8538    -1.4188 H       
  24 H24           -2.3359    -2.5279     3.1539 H       
  25 H25           -3.8519    -3.7739    -1.3732 H       
  26 H26           -3.3191    -3.7447     0.3343 H       
  27 H27           -3.5925    -1.2981    -1.2550 H       
  28 H28           -4.9855    -2.0670    -0.7956 H       
  29 H29           -4.5954    -1.9815     2.5836 H       
  30 H30           -3.5415    -0.0645     0.5086 H       
  31 H31           -5.2159    -0.6406     0.6767 H       
  32 H32           -0.8791     1.7865     0.0187 H       
  33 H33            2.2219     0.7182    -1.2535 H       
  34 H34            0.3585     3.6619     1.2261 H       
  35 H35            4.2874     2.0561    -1.2802 H       
  36 H36            2.4287     4.9923     1.1931 H       
  37 H37            4.3917     4.1876    -0.0543 H       
@<TRIPOS>BOND
   1    1    8 2
   2    2    8 am
   3    2   13 1
   4    2   32 1
   5    3    4 1
   6    3    5 1
   7    3    6 1
   8    3   19 1
   9    4    5 1
  10    4    7 1
  11    4   20 1
  12    5    8 1
  13    5   21 1
  14    6    9 1
  15    6   22 1
  16    6   23 1
  17    7   11 2
  18    7   24 1
  19    9   10 1
  20    9   25 1
  21    9   26 1
  22   10   12 1
  23   10   27 1
  24   10   28 1
  25   11   12 1
  26   11   29 1
  27   12   30 1
  28   12   31 1
  29   13   14 ar
  30   13   15 ar
  31   14   16 ar
  32   14   33 1
  33   15   17 ar
  34   15   34 1
  35   16   18 ar
  36   16   35 1
  37   17   18 ar
  38   17   36 1
  39   18   37 1

#	End of record

#	Name: 5349172
#	Creating user name:	landrgr1
#	Creation time:	28. 01. 2015 13:52

#	Modifying user name:	landrgr1
#	Modification time:	28. 01. 2015 13:52

#	Program:	corina 3.48 0006  22.01.2010

@<TRIPOS>MOLECULE
5349172
  39   40    0    0    0
SMALL
NO_CHARGES


@<TRIPOS>ATOM
   1 O1            -0.0163     1.3538     0.0095 O.3     
   2 O2            -2.3829    -0.0495     0.0250 O.3     
   3 O3             0.2256    -6.9475    -0.0210 O.2     
   4 C4             0.0409    -2.7787    -0.0137 C.ar    
   5 C5             0.0021    -0.0041     0.0020 C.ar    
   6 C6            -1.1975    -0.7157     0.0096 C.ar    
   7 C7            -1.1818    -2.0961     0.0021 C.ar    
   8 C8             1.2408    -2.0568    -0.0222 C.ar    
   9 C9             1.2154    -0.6800    -0.0137 C.ar    
  10 C10            0.0647    -4.2472    -0.0158 C.2     
  11 C11            1.2479     2.0198     0.0010 C.3     
  12 C12            1.2470    -4.9044    -0.0311 C.2     
  13 C13            2.5628    -7.0404    -0.0498 C.ar    
  14 C14            1.2700    -6.3217    -0.0331 C.2     
  15 C15            2.5890    -8.4362    -0.0518 C.ar    
  16 C16            3.7619    -6.3259    -0.0694 C.ar    
  17 C17            1.0269     3.5338     0.0112 C.3     
  18 C18            3.7980    -9.1002    -0.0679 C.ar    
  19 C19            4.9641    -7.0023    -0.0854 C.ar    
  20 C20            4.9830    -8.3859    -0.0816 C.ar    
  21 C21           -3.5723    -0.8416     0.0321 C.3     
  22 H22           -2.1100    -2.6482     0.0080 H       
  23 H23            2.1857    -2.5796    -0.0340 H       
  24 H24            2.1414    -0.1242    -0.0195 H       
  25 H25           -0.8616    -4.8023    -0.0051 H       
  26 H26            1.8173     1.7298     0.8840 H       
  27 H27            1.8003     1.7394    -0.8958 H       
  28 H28            2.1733    -4.3493    -0.0417 H       
  29 H29            1.6648    -8.9949    -0.0404 H       
  30 H30            3.7485    -5.2460    -0.0725 H       
  31 H31            1.9913     4.0418     0.0048 H       
  32 H32            0.4575     3.8238    -0.8718 H       
  33 H33            0.4745     3.8142     0.9080 H       
  34 H34            3.8196   -10.1800    -0.0694 H       
  35 H35            5.8925    -6.4508    -0.1007 H       
  36 H36            5.9269    -8.9107    -0.0938 H       
  37 H37           -3.5985    -1.4656    -0.8613 H       
  38 H38           -3.5812    -1.4757     0.9186 H       
  39 H39           -4.4443    -0.1877     0.0443 H       
@<TRIPOS>BOND
   1    1    5 1
   2    1   11 1
   3    2    6 1
   4    2   21 1
   5    3   14 2
   6    4    7 ar
   7    4    8 ar
   8    4   10 1
   9    5    6 ar
  10    5    9 ar
  11    6    7 ar
  12    7   22 1
  13    8    9 ar
  14    8   23 1
  15    9   24 1
  16   10   12 2
  17   10   25 1
  18   11   17 1
  19   11   26 1
  20   11   27 1
  21   12   14 1
  22   12   28 1
  23   13   14 1
  24   13   15 ar
  25   13   16 ar
  26   15   18 ar
  27   15   29 1
  28   16   19 ar
  29   16   30 1
  30   17   31 1
  31   17   32 1
  32   17   33 1
  33   18   20 ar
  34   18   34 1
  35   19   20 ar
  36   19   35 1
  37   20   36 1
  38   21   37 1
  39   21   38 1
  40   21   39 1

#	End of record

#	Name: 5348787
#	Creating user name:	landrgr1
#	Creation time:	28. 01. 2015 13:52

#	Modifying user name:	landrgr1
#	Modification time:	28. 01. 2015 13:52

#	Program:	corina 3.48 0006  22.01.2010

@<TRIPOS>MOLECULE
5348787
  37   38    0    0    0
SMALL
NO_CHARGES


@<TRIPOS>ATOM
   1 O1            -0.0144     1.2138     0.0087 O.3     
   2 O2             2.2072     1.1934    -0.0126 O.2     
   3 N3            -2.3233     0.0051     0.0243 N.pl3   
   4 N4             0.0021    -0.0041     0.0020 N.2     
   5 C5            -1.0586    -4.9190    -0.0142 C.ar    
   6 C6            -1.0961    -2.1503     0.0010 C.ar    
   7 C7             0.1316    -4.2139    -0.0218 C.ar    
   8 C8            -2.2675    -4.2465     0.0009 C.ar    
   9 C9             0.1195    -2.8341    -0.0143 C.ar    
  10 C10           -2.2928    -2.8670     0.0086 C.ar    
  11 C11           -1.0382    -6.4258    -0.0288 C.3     
  12 C12           -1.1162    -0.6702     0.0091 C.2     
  13 C13            2.4854     5.4028     0.0073 C.ar    
  14 C14            3.7208     6.0583    -0.0009 C.ar    
  15 C15            1.3046     6.1520     0.0169 C.ar    
  16 C16            2.4284     3.9322    -0.0000 C.2     
  17 C17            3.7659     7.4364     0.0003 C.ar    
  18 C18            1.3663     7.5295     0.0180 C.ar    
  19 C19            2.5928     8.1708     0.0102 C.ar    
  20 C20            1.2348     3.3034     0.0080 C.2     
  21 C21            1.1781     1.8420     0.0007 C.2     
  22 H22            1.0722    -4.7444    -0.0333 H       
  23 H23           -3.1934    -4.8025     0.0068 H       
  24 H24            1.0493    -2.2847    -0.0206 H       
  25 H25           -3.2371    -2.3431     0.0207 H       
  26 H26           -1.0210    -6.7988     0.9952 H       
  27 H27           -1.9293    -6.7963    -0.5355 H       
  28 H28           -0.1496    -6.7720    -0.5567 H       
  29 H29            4.6371     5.4866    -0.0079 H       
  30 H30            0.3468     5.6530     0.0229 H       
  31 H31            3.3420     3.3563    -0.0118 H       
  32 H32            4.7191     7.9441    -0.0060 H       
  33 H33            0.4553     8.1094     0.0250 H       
  34 H34            2.6347     9.2500     0.0119 H       
  35 H35           -2.3365     0.9749     0.0296 H       
  36 H36           -3.1567    -0.4913     0.0296 H       
  37 H37            0.3212     3.8792     0.0198 H       
@<TRIPOS>BOND
   1    1    4 1
   2    1   21 1
   3    2   21 2
   4    3   12 1
   5    3   35 1
   6    3   36 1
   7    4   12 2
   8    5    7 ar
   9    5    8 ar
  10    5   11 1
  11    6    9 ar
  12    6   10 ar
  13    6   12 1
  14    7    9 ar
  15    7   22 1
  16    8   10 ar
  17    8   23 1
  18    9   24 1
  19   10   25 1
  20   11   26 1
  21   11   27 1
  22   11   28 1
  23   13   14 ar
  24   13   15 ar
  25   13   16 1
  26   14   17 ar
  27   14   29 1
  28   15   18 ar
  29   15   30 1
  30   16   20 2
  31   16   31 1
  32   17   19 ar
  33   17   32 1
  34   18   19 ar
  35   18   33 1
  36   19   34 1
  37   20   21 1
  38   20   37 1

#	End of record

#	Name: 5348564
#	Creating user name:	landrgr1
#	Creation time:	28. 01. 2015 13:52

#	Modifying user name:	landrgr1
#	Modification time:	28. 01. 2015 13:52

#	Program:	corina 3.48 0006  22.01.2010

@<TRIPOS>MOLECULE
5348564
  45   46    0    0    0
SMALL
NO_CHARGES


@<TRIPOS>ATOM
   1 O1            -0.0164     1.3557     0.0095 O.3     
   2 O2            -2.3810    -0.0568     0.0250 O.3     
   3 O3             4.1477    -3.6972     1.6090 O.3     
   4 O4             7.0166    -5.2800     8.4237 O.3     
   5 O5             2.3163    -2.6724     2.3084 O.2     
   6 N6             4.4605    -3.8717     2.7732 N.2     
   7 N7             6.3900    -4.9513     2.0508 N.pl3   
   8 C8             1.2274    -2.0643    -0.0203 C.ar    
   9 C9             2.5425    -2.8000    -0.0368 C.3     
  10 C10            1.2105    -0.6820    -0.0132 C.ar    
  11 C11            0.0021    -0.0041     0.0020 C.ar    
  12 C12            0.0405    -2.7733    -0.0181 C.ar    
  13 C13           -1.1925    -0.7177     0.0101 C.ar    
  14 C14           -1.1685    -2.1031    -0.0029 C.ar    
  15 C15            2.9948    -3.0524     1.3784 C.2     
  16 C16            5.9483    -4.7032     4.4777 C.ar    
  17 C17            7.1353    -5.3671     4.7912 C.ar    
  18 C18            5.1233    -4.2347     5.5014 C.ar    
  19 C19            5.5685    -4.4914     3.0640 C.2     
  20 C20            6.6653    -5.0900     7.1257 C.ar    
  21 C21            7.4888    -5.5577     6.1095 C.ar    
  22 C22            5.4832    -4.4289     6.8174 C.ar    
  23 C23            1.2479     2.0217     0.0010 C.3     
  24 C24           -3.5667    -0.8544     0.0325 C.3     
  25 C25            6.1240    -4.7736     9.4181 C.3     
  26 H26            2.4201    -3.7515    -0.5543 H       
  27 H27            3.2891    -2.1980    -0.5549 H       
  28 H28            2.1390    -0.1305    -0.0190 H       
  29 H29            0.0579    -3.8531    -0.0285 H       
  30 H30           -2.0943    -2.6593    -0.0016 H       
  31 H31            7.7758    -5.7313     4.0016 H       
  32 H32            4.2043    -3.7202     5.2625 H       
  33 H33            8.4070    -6.0716     6.3528 H       
  34 H34            4.8454    -4.0666     7.6101 H       
  35 H35            1.8003     1.7413    -0.8958 H       
  36 H36            1.0905     3.1003     0.0083 H       
  37 H37            1.8173     1.7317     0.8840 H       
  38 H38           -3.5901    -1.4790    -0.8604 H       
  39 H39           -3.5728    -1.4880     0.9194 H       
  40 H40           -4.4417    -0.2045     0.0444 H       
  41 H41            6.1409    -4.8124     1.1237 H       
  42 H42            7.2152    -5.4128     2.2674 H       
  43 H43            6.5224    -4.9918    10.4089 H       
  44 H44            6.0198    -3.6953     9.2977 H       
  45 H45            5.1488    -5.2475     9.3062 H       
@<TRIPOS>BOND
   1    1   11 1
   2    1   23 1
   3    2   13 1
   4    2   24 1
   5    3    6 1
   6    3   15 1
   7    4   20 1
   8    4   25 1
   9    5   15 2
  10    6   19 2
  11    7   19 1
  12    7   41 1
  13    7   42 1
  14    8    9 1
  15    8   10 ar
  16    8   12 ar
  17    9   15 1
  18    9   26 1
  19    9   27 1
  20   10   11 ar
  21   10   28 1
  22   11   13 ar
  23   12   14 ar
  24   12   29 1
  25   13   14 ar
  26   14   30 1
  27   16   17 ar
  28   16   18 ar
  29   16   19 1
  30   17   21 ar
  31   17   31 1
  32   18   22 ar
  33   18   32 1
  34   20   21 ar
  35   20   22 ar
  36   21   33 1
  37   22   34 1
  38   23   35 1
  39   23   36 1
  40   23   37 1
  41   24   38 1
  42   24   39 1
  43   24   40 1
  44   25   43 1
  45   25   44 1
  46   25   45 1

#	End of record

#	Name: 5348250
#	Creating user name:	landrgr1
#	Creation time:	28. 01. 2015 13:52

#	Modifying user name:	landrgr1
#	Modification time:	28. 01. 2015 13:52

#	Program:	corina 3.48 0006  22.01.2010

@<TRIPOS>MOLECULE
5348250
  51   53    0    0    0
SMALL
NO_CHARGES


@<TRIPOS>ATOM
   1 O1            -0.3670     1.3759     0.5437 O.3     
   2 O2             1.6745    -0.4918    -1.5268 O.2     
   3 O3             1.1509     4.4357    -8.4729 O.3     
   4 O4             3.0688     2.6108    -9.0360 O.2     
   5 N5             0.3869     1.2165    -2.1149 N.am    
   6 N6             1.0655     1.3645    -3.3316 N.pl3   
   7 C7             0.0254     0.0907     0.0578 C.3     
   8 C8             0.9337    -0.5703     1.0624 C.ar    
   9 C9            -1.1989    -0.7630    -0.1505 C.ar    
  10 C10            0.7554     0.2499    -1.2510 C.2     
  11 C11            1.3244    -1.8839     0.8817 C.ar    
  12 C12           -2.3775    -0.4519     0.5015 C.ar    
  13 C13            1.3807     0.1388     2.1616 C.ar    
  14 C14           -1.1449    -1.8538    -0.9979 C.ar    
  15 C15            2.1575    -2.4902     1.8032 C.ar    
  16 C16           -3.5005    -1.2349     0.3105 C.ar    
  17 C17            2.2138    -0.4675     3.0831 C.ar    
  18 C18           -2.2680    -2.6368    -1.1890 C.ar    
  19 C19            0.6313     2.2533    -4.2382 C.2     
  20 C20            2.6003    -1.7828     2.9052 C.ar    
  21 C21           -3.4451    -2.3288    -0.5329 C.ar    
  22 C22            1.2622     2.3474    -5.4833 C.2     
  23 C23           -0.5359     3.1501    -3.9151 C.3     
  24 C24            0.8910     3.3669    -6.3895 C.2     
  25 C25            2.2744     1.4280    -5.8341 C.2     
  26 C26            1.5065     3.4558    -7.5987 C.2     
  27 C27            2.8871     1.5203    -7.0425 C.2     
  28 C28            2.5147     2.5304    -7.9469 C.2     
  29 C29            0.1235     5.3366    -8.0548 C.3     
  30 H30            0.9784    -2.4367     0.0208 H       
  31 H31           -2.4207     0.4028     1.1604 H       
  32 H32            1.0793     1.1666     2.3002 H       
  33 H33           -0.2255    -2.0940    -1.5110 H       
  34 H34           -0.3482     1.8097    -1.8943 H       
  35 H35            0.3720     1.9795     0.7007 H       
  36 H36            2.4621    -3.5168     1.6625 H       
  37 H37           -4.4211    -0.9923     0.8204 H       
  38 H38            2.5634     0.0866     3.9417 H       
  39 H39           -2.2259    -3.4888    -1.8513 H       
  40 H40            1.8492     0.8244    -3.5187 H       
  41 H41            3.2509    -2.2566     3.6254 H       
  42 H42           -4.3224    -2.9408    -0.6819 H       
  43 H43           -0.1716     4.0696    -3.4569 H       
  44 H44           -1.0747     3.3896    -4.8319 H       
  45 H45           -1.2055     2.6397    -3.2229 H       
  46 H46            0.1195     4.0738    -6.1220 H       
  47 H47            2.5618     0.6511    -5.1411 H       
  48 H48            3.6618     0.8167    -7.3093 H       
  49 H49           -0.7904     4.7775    -7.8540 H       
  50 H50            0.4399     5.8532    -7.1486 H       
  51 H51           -0.0627     6.0663    -8.8428 H       
@<TRIPOS>BOND
   1    1    7 1
   2    1   35 1
   3    2   10 2
   4    3   26 1
   5    3   29 1
   6    4   28 2
   7    5    6 1
   8    5   10 am
   9    5   34 1
  10    6   19 1
  11    6   40 1
  12    7    8 1
  13    7    9 1
  14    7   10 1
  15    8   11 ar
  16    8   13 ar
  17    9   12 ar
  18    9   14 ar
  19   11   15 ar
  20   11   30 1
  21   12   16 ar
  22   12   31 1
  23   13   17 ar
  24   13   32 1
  25   14   18 ar
  26   14   33 1
  27   15   20 ar
  28   15   36 1
  29   16   21 ar
  30   16   37 1
  31   17   20 ar
  32   17   38 1
  33   18   21 ar
  34   18   39 1
  35   19   22 2
  36   19   23 1
  37   20   41 1
  38   21   42 1
  39   22   24 1
  40   22   25 1
  41   23   43 1
  42   23   44 1
  43   23   45 1
  44   24   26 2
  45   24   46 1
  46   25   27 2
  47   25   47 1
  48   26   28 1
  49   27   28 1
  50   27   48 1
  51   29   49 1
  52   29   50 1
  53   29   51 1

#	End of record

#	Name: 5347977
#	Creating user name:	landrgr1
#	Creation time:	28. 01. 2015 13:52

#	Modifying user name:	landrgr1
#	Modification time:	28. 01. 2015 13:52

#	Program:	corina 3.48 0006  22.01.2010

@<TRIPOS>MOLECULE
5347977
  63   67    0    0    0
SMALL
NO_CHARGES


@<TRIPOS>ATOM
   1 F1             2.0231    -4.2804     3.5702 F       
   2 F2             0.3360    -5.6013     2.7778 F       
   3 F3            -0.1410    -3.5564     3.6779 F       
   4 O4             4.1391    -6.5868    -2.6257 O.2     
   5 O5             1.5425     2.1148    -0.6940 O.3     
   6 O6             2.9849    -8.3175    -4.5348 O.2     
   7 N7             1.8982    -4.3973     0.7377 N.pl3   
   8 N8             0.7755    -4.0782    -1.3264 N.2     
   9 N9             3.0628    -5.0430     1.1351 N.pl3   
  10 N10            2.3231    -5.5811    -3.4194 N.am    
  11 N11            3.0490    -5.8744    -6.9119 N.pl3   
  12 N12            3.1936    -7.2144    -6.5345 N.am    
  13 C13            0.9299    -3.6417     1.5399 C.3     
  14 C14           -0.4137    -3.6903     0.7956 C.3     
  15 C15           -0.2189    -3.2350    -0.6513 C.3     
  16 C16            1.7520    -4.5835    -0.6297 C.2     
  17 C17            0.7839    -4.2837     2.9210 C.3     
  18 C18            2.8845    -5.4164    -1.0522 C.2     
  19 C19            0.2524    -1.8036    -0.6631 C.ar    
  20 C20            3.6363    -5.6554     0.0674 C.2     
  21 C21            3.1580    -5.8991    -2.4103 C.2     
  22 C22           -0.6506    -0.7815    -0.8903 C.ar    
  23 C23            1.5861    -1.5144    -0.4410 C.ar    
  24 C24            2.6406    -5.9542    -4.7407 C.2     
  25 C25            2.7144    -5.1311    -5.8105 C.2     
  26 C26           -0.2211     0.5314    -0.9012 C.ar    
  27 C27            2.0206    -0.2031    -0.4509 C.ar    
  28 C28            2.9514    -7.3048    -5.2104 C.2     
  29 C29            1.1175     0.8240    -0.6839 C.ar    
  30 C30            3.5300    -8.2745    -7.3821 C.ar    
  31 C31            2.4700    -3.6442    -5.7944 C.3     
  32 C32            3.2323    -5.3493    -8.2672 C.3     
  33 C33            4.5342    -9.1632    -7.0202 C.ar    
  34 C34            2.8569    -8.4444    -8.5851 C.ar    
  35 C35            4.8641   -10.2091    -7.8596 C.ar    
  36 C36            3.1916    -9.4924    -9.4199 C.ar    
  37 C37            2.9343     2.3414    -0.4629 C.3     
  38 C38            4.1958   -10.3721    -9.0593 C.ar    
  39 H39            1.2598    -2.6080     1.6431 H       
  40 H40           -0.7973    -4.7105     0.8062 H       
  41 H41           -1.1264    -3.0306     1.2905 H       
  42 H42           -1.1689    -3.3047    -1.1813 H       
  43 H43            3.4137    -5.0540     2.0393 H       
  44 H44            4.5441    -6.2397     0.0965 H       
  45 H45           -1.6925    -1.0098    -1.0598 H       
  46 H46            2.2887    -2.3142    -0.2594 H       
  47 H47            1.5037    -5.0955    -3.2361 H       
  48 H48           -0.9267     1.3294    -1.0791 H       
  49 H49            3.0624     0.0224    -0.2770 H       
  50 H50            1.4148    -3.4473    -5.9840 H       
  51 H51            2.7453    -3.2412    -4.8197 H       
  52 H52            3.0731    -3.1684    -6.5677 H       
  53 H53            2.2711    -5.3255    -8.7807 H       
  54 H54            3.6407    -4.3401    -8.2136 H       
  55 H55            3.9214    -5.9915    -8.8156 H       
  56 H56            5.0568    -9.0363    -6.0836 H       
  57 H57            2.0723    -7.7579    -8.8672 H       
  58 H58            5.6450   -10.9003    -7.5790 H       
  59 H59            2.6683    -9.6252   -10.3553 H       
  60 H60            4.4559   -11.1906    -9.7141 H       
  61 H61            3.1389     3.4114    -0.4975 H       
  62 H62            3.2083     1.9506     0.5170 H       
  63 H63            3.5175     1.8349    -1.2320 H       
@<TRIPOS>BOND
   1    1   17 1
   2    2   17 1
   3    3   17 1
   4    4   21 2
   5    5   29 1
   6    5   37 1
   7    6   28 2
   8    7    9 1
   9    7   13 1
  10    7   16 1
  11    8   15 1
  12    8   16 2
  13    9   20 1
  14    9   43 1
  15   10   21 am
  16   10   24 1
  17   10   47 1
  18   11   12 1
  19   11   25 1
  20   11   32 1
  21   12   28 am
  22   12   30 1
  23   13   14 1
  24   13   17 1
  25   13   39 1
  26   14   15 1
  27   14   40 1
  28   14   41 1
  29   15   19 1
  30   15   42 1
  31   16   18 1
  32   18   20 2
  33   18   21 1
  34   19   22 ar
  35   19   23 ar
  36   20   44 1
  37   22   26 ar
  38   22   45 1
  39   23   27 ar
  40   23   46 1
  41   24   25 2
  42   24   28 1
  43   25   31 1
  44   26   29 ar
  45   26   48 1
  46   27   29 ar
  47   27   49 1
  48   30   33 ar
  49   30   34 ar
  50   31   50 1
  51   31   51 1
  52   31   52 1
  53   32   53 1
  54   32   54 1
  55   32   55 1
  56   33   35 ar
  57   33   56 1
  58   34   36 ar
  59   34   57 1
  60   35   38 ar
  61   35   58 1
  62   36   38 ar
  63   36   59 1
  64   37   61 1
  65   37   62 1
  66   37   63 1
  67   38   60 1

#	End of record

#	Name: 5347726
#	Creating user name:	landrgr1
#	Creation time:	28. 01. 2015 13:52

#	Modifying user name:	landrgr1
#	Modification time:	28. 01. 2015 13:52

#	Program:	corina 3.48 0006  22.01.2010

@<TRIPOS>MOLECULE
5347726
  37   38    0    0    0
SMALL
NO_CHARGES


@<TRIPOS>ATOM
   1 S1             0.8141     0.3368     1.4701 S.3     
   2 O2             3.3137     2.4859    -2.4329 O.3     
   3 O3             1.8566     2.1196    -4.7432 O.2     
   4 N4            -1.1003    -0.7983     0.0040 N.pl3   
   5 C5            -3.1567    -2.4273     1.0614 C.3     
   6 C6            -3.1642    -0.9157     1.3006 C.3     
   7 C7            -1.7124    -2.9315     1.0185 C.3     
   8 C8            -2.4420    -0.2163     0.1447 C.3     
   9 C9            -0.9737    -2.2549    -0.1406 C.3     
  10 C10           -3.9072    -3.1266     2.1965 C.3     
  11 C11            0.0021    -0.0041     0.0020 C.2     
  12 C12            0.4799     0.5425    -1.2160 C.2     
  13 C13            1.6876     1.2634    -1.2376 C.2     
  14 C14           -0.2494     0.3591    -2.4019 C.2     
  15 C15            2.1459     1.7878    -2.4097 C.2     
  16 C16            0.2088     0.8832    -3.5726 C.2     
  17 C17            1.4095     1.6067    -3.5961 C.2     
  18 C18            4.0077     2.6307    -1.1921 C.3     
  19 H19           -3.6464    -2.6473     0.1128 H       
  20 H20           -4.1934    -0.5610     1.3543 H       
  21 H21           -2.6528    -0.6930     2.2370 H       
  22 H22           -1.2146    -2.6898     1.9576 H       
  23 H23           -1.7083    -4.0115     0.8715 H       
  24 H24           -2.3575     0.8493     0.3579 H       
  25 H25           -3.0026    -0.3629    -0.7786 H       
  26 H26           -1.4145    -2.5679    -1.0871 H       
  27 H27            0.0795    -2.5345    -0.1155 H       
  28 H28           -4.9363    -2.7685     2.2264 H       
  29 H29           -3.9020    -4.2033     2.0263 H       
  30 H30           -3.4181    -2.9064     3.1454 H       
  31 H31            2.2510     1.4016    -0.3267 H       
  32 H32            1.6509    -0.7948     1.5556 H       
  33 H33           -1.1743    -0.1983    -2.3857 H       
  34 H34           -0.3534     0.7412    -4.4837 H       
  35 H35            4.9197     3.2062    -1.3509 H       
  36 H36            3.3697     3.1507    -0.4775 H       
  37 H37            4.2631     1.6456    -0.8016 H       
@<TRIPOS>BOND
   1    1   11 1
   2    1   32 1
   3    2   15 1
   4    2   18 1
   5    3   17 2
   6    4    8 1
   7    4    9 1
   8    4   11 1
   9    5    6 1
  10    5    7 1
  11    5   10 1
  12    5   19 1
  13    6    8 1
  14    6   20 1
  15    6   21 1
  16    7    9 1
  17    7   22 1
  18    7   23 1
  19    8   24 1
  20    8   25 1
  21    9   26 1
  22    9   27 1
  23   10   28 1
  24   10   29 1
  25   10   30 1
  26   11   12 2
  27   12   13 1
  28   12   14 1
  29   13   15 2
  30   13   31 1
  31   14   16 2
  32   14   33 1
  33   15   17 1
  34   16   17 1
  35   16   34 1
  36   18   35 1
  37   18   36 1
  38   18   37 1

#	End of record

#	Name: 5347077
#	Creating user name:	landrgr1
#	Creation time:	28. 01. 2015 13:52

#	Modifying user name:	landrgr1
#	Modification time:	28. 01. 2015 13:52

#	Program:	corina 3.48 0006  22.01.2010

@<TRIPOS>MOLECULE
5347077
  56   59    0    0    0
SMALL
NO_CHARGES


@<TRIPOS>ATOM
   1 S1             2.1153     4.6115     0.0638 S.o2    
   2 S2            -6.0806     7.3899     9.4190 S.3     
   3 S3             3.8794     0.7645     0.6353 S.3     
   4 O4            -2.4394     6.5368     9.7058 O.2     
   5 O5            -1.2110     6.7176     5.1036 O.2     
   6 O6            -5.6438     7.7814     6.8029 O.2     
   7 O7             2.8195     5.8440     0.1275 O.2     
   8 O8             1.3624     4.2042    -1.0704 O.2     
   9 O9             0.0363     4.4633    13.9399 O.3     
  10 N10           -3.9207     7.1502     8.1596 N.am    
  11 N11           -1.6319     4.5856     4.6574 N.am    
  12 N12            3.2326     3.4199     0.3359 N.am    
  13 N13            1.6204     1.6755     0.1925 N.2     
  14 C14           -2.9202     7.1302     7.0897 C.3     
  15 C15           -2.8756     5.7370     6.4590 C.3     
  16 C16           -3.5765     6.8438     9.3993 C.2     
  17 C17           -1.8464     5.7165     5.3585 C.2     
  18 C18           -4.6688     6.9016    10.3774 C.2     
  19 C19           -0.7474     4.5916     3.5732 C.ar    
  20 C20           -5.1893     7.4789     7.8898 C.2     
  21 C21            1.0015     4.6038     1.4292 C.ar    
  22 C22            0.3930     5.3832     3.6100 C.ar    
  23 C23           -1.0052     3.8018     2.4604 C.ar    
  24 C24            1.2641     5.3870     2.5382 C.ar    
  25 C25           -0.1303     3.8101     1.3918 C.ar    
  26 C26           -4.6125     6.6418    11.7083 C.2     
  27 C27           -3.3932     6.0702    12.2938 C.ar    
  28 C28           -2.9023     6.5587    13.5109 C.ar    
  29 C29           -2.7202     5.0306    11.6399 C.ar    
  30 C30           -1.7587     6.0191    14.0552 C.ar    
  31 C31           -1.5776     4.4985    12.1934 C.ar    
  32 C32            2.8363     2.0920     0.3658 C.2     
  33 C33           -1.0913     4.9915    13.3987 C.ar    
  34 C34            2.5207    -0.3471     0.4881 C.2     
  35 C35            1.4220     0.3707     0.2530 C.2     
  36 C36            0.6726     3.4100    13.2134 C.3     
  37 H37           -3.1863     7.8648     6.3297 H       
  38 H38           -1.9413     7.3734     7.5031 H       
  39 H39           -2.6096     5.0024     7.2191 H       
  40 H40           -3.8545     5.4938     6.0457 H       
  41 H41           -2.0908     3.7674     4.9044 H       
  42 H42            0.5984     5.9954     4.4756 H       
  43 H43           -1.8888     3.1815     2.4308 H       
  44 H44            2.1490     6.0055     2.5645 H       
  45 H45           -0.3327     3.1998     0.5241 H       
  46 H46           -5.4644     6.8555    12.3367 H       
  47 H47            4.1644     3.6512     0.4744 H       
  48 H48           -3.4196     7.3575    14.0214 H       
  49 H49           -3.0972     4.6468    10.7034 H       
  50 H50           -1.3793     6.3951    14.9939 H       
  51 H51           -1.0578     3.6967    11.6900 H       
  52 H52            2.5692    -1.4227     0.5734 H       
  53 H53            0.4484    -0.0783     0.1223 H       
  54 H54           -0.0190     2.5746    13.1043 H       
  55 H55            0.9630     3.7726    12.2274 H       
  56 H56            1.5592     3.0794    13.7546 H       
@<TRIPOS>BOND
   1    1    7 2
   2    1    8 2
   3    1   12 am
   4    1   21 1
   5    2   18 1
   6    2   20 1
   7    3   32 1
   8    3   34 1
   9    4   16 2
  10    5   17 2
  11    6   20 2
  12    9   33 1
  13    9   36 1
  14   10   14 1
  15   10   16 am
  16   10   20 am
  17   11   17 am
  18   11   19 1
  19   11   41 1
  20   12   32 1
  21   12   47 1
  22   13   32 2
  23   13   35 1
  24   14   15 1
  25   14   37 1
  26   14   38 1
  27   15   17 1
  28   15   39 1
  29   15   40 1
  30   16   18 1
  31   18   26 2
  32   19   22 ar
  33   19   23 ar
  34   21   24 ar
  35   21   25 ar
  36   22   24 ar
  37   22   42 1
  38   23   25 ar
  39   23   43 1
  40   24   44 1
  41   25   45 1
  42   26   27 1
  43   26   46 1
  44   27   28 ar
  45   27   29 ar
  46   28   30 ar
  47   28   48 1
  48   29   31 ar
  49   29   49 1
  50   30   33 ar
  51   30   50 1
  52   31   33 ar
  53   31   51 1
  54   34   35 2
  55   34   52 1
  56   35   53 1
  57   36   54 1
  58   36   55 1
  59   36   56 1

#	End of record

#	Name: 5346526
#	Creating user name:	landrgr1
#	Creation time:	28. 01. 2015 13:52

#	Modifying user name:	landrgr1
#	Modification time:	28. 01. 2015 13:52

#	Program:	corina 3.48 0006  22.01.2010

@<TRIPOS>MOLECULE
5346526
  46   48    0    0    0
SMALL
NO_CHARGES


@<TRIPOS>ATOM
   1 S1            -0.8799    -0.8739    -2.7685 S.3     
   2 O2            -3.2928    -1.2155    -0.0749 O.2     
   3 O3            -7.2111     4.9836     0.7182 O.3     
   4 O4            -5.1754     6.8344     0.7214 O.3     
   5 N5            -1.1099    -0.8090     0.0090 N.am    
   6 N6             0.8559    -1.4399    -0.7338 N.2     
   7 C7            -0.3179    -1.0684     1.1204 C.ar    
   8 C8             0.9329    -1.4698     0.6235 C.ar    
   9 C9            -0.3399    -1.0530    -1.1009 C.2     
  10 C10           -0.5321    -1.0049     2.4874 C.ar    
  11 C11           -2.3942    -0.4003     0.0186 C.2     
  12 C12            1.9529    -1.8019     1.5177 C.ar    
  13 C13            0.4863    -1.3369     3.3589 C.ar    
  14 C14            1.7231    -1.7329     2.8744 C.ar    
  15 C15           -2.6982     0.9793     0.1377 C.2     
  16 C16           -4.2987     2.8106     0.3732 C.ar    
  17 C17           -3.9836     1.3806     0.2498 C.2     
  18 C18            0.6303    -1.3568    -3.6415 C.3     
  19 C19           -5.6296     3.2287     0.4894 C.ar    
  20 C20           -5.9193     4.5737     0.6056 C.ar    
  21 C21           -3.2685     3.7583     0.3808 C.ar    
  22 C22           -4.8877     5.5120     0.6070 C.ar    
  23 C23           -3.5667     5.0979     0.4971 C.ar    
  24 C24            0.3947    -1.2762    -5.1511 C.3     
  25 C25           -8.2169     3.9686     0.7092 C.3     
  26 C26           -4.0712     7.7415     0.7158 C.3     
  27 H27           -1.4933    -0.6962     2.8708 H       
  28 H28            2.9186    -2.1121     1.1469 H       
  29 H29            0.3183    -1.2867     4.4246 H       
  30 H30            2.5122    -1.9902     3.5655 H       
  31 H31           -1.9025     1.7094     0.1389 H       
  32 H32           -4.7793     0.6504     0.2486 H       
  33 H33            1.4415    -0.6837    -3.3639 H       
  34 H34            0.8965    -2.3782    -3.3694 H       
  35 H35           -6.4278     2.5011     0.4879 H       
  36 H36           -2.2402     3.4392     0.2958 H       
  37 H37           -2.7711     5.8282     0.5031 H       
  38 H38            1.3042    -1.5669    -5.6768 H       
  39 H39           -0.4164    -1.9493    -5.4287 H       
  40 H40            0.1285    -0.2548    -5.4232 H       
  41 H41           -9.1997     4.4300     0.8057 H       
  42 H42           -8.1660     3.4150    -0.2284 H       
  43 H43           -8.0523     3.2865     1.5433 H       
  44 H44           -3.4088     7.5126     1.5506 H       
  45 H45           -3.5232     7.6410    -0.2211 H       
  46 H46           -4.4394     8.7627     0.8135 H       
@<TRIPOS>BOND
   1    1    9 1
   2    1   18 1
   3    2   11 2
   4    3   20 1
   5    3   25 1
   6    4   22 1
   7    4   26 1
   8    5    7 1
   9    5    9 1
  10    5   11 am
  11    6    8 1
  12    6    9 2
  13    7    8 ar
  14    7   10 ar
  15    8   12 ar
  16   10   13 ar
  17   10   27 1
  18   11   15 1
  19   12   14 ar
  20   12   28 1
  21   13   14 ar
  22   13   29 1
  23   14   30 1
  24   15   17 2
  25   15   31 1
  26   16   17 1
  27   16   19 ar
  28   16   21 ar
  29   17   32 1
  30   18   24 1
  31   18   33 1
  32   18   34 1
  33   19   20 ar
  34   19   35 1
  35   20   22 ar
  36   21   23 ar
  37   21   36 1
  38   22   23 ar
  39   23   37 1
  40   24   38 1
  41   24   39 1
  42   24   40 1
  43   25   41 1
  44   25   42 1
  45   25   43 1
  46   26   44 1
  47   26   45 1
  48   26   46 1

#	End of record

#	Name: 5346268
#	Creating user name:	landrgr1
#	Creation time:	28. 01. 2015 13:52

#	Modifying user name:	landrgr1
#	Modification time:	28. 01. 2015 13:52

#	Program:	corina 3.48 0006  22.01.2010

@<TRIPOS>MOLECULE
5346268
  45   48    0    0    0
SMALL
NO_CHARGES


@<TRIPOS>ATOM
   1 O1             0.0635    -4.3281     2.4679 O.2     
   2 O2             0.0511     1.6708     0.5333 O.3     
   3 O3            -0.6698   -13.3570    -0.2638 O.2     
   4 O4            -1.9984   -12.3402    -1.8145 O.2     
   5 N5            -0.1787    -3.8410     0.2572 N.am    
   6 N6            -1.2087   -12.2640    -0.7633 N.pl3   
   7 C7            -0.3346    -4.5531    -0.8855 C.2     
   8 C8            -0.1840    -6.0692     0.8249 C.2     
   9 C9            -0.0823    -4.6677     1.3127 C.2     
  10 C10           -0.3415    -5.9904    -0.5493 C.2     
  11 C11           -0.1205    -2.4486     0.3272 C.ar    
  12 C12           -0.4690    -4.0086    -2.1860 C.ar    
  13 C13           -0.1312    -7.2439     1.6056 C.2     
  14 C14           -1.1680    -1.7359     0.9027 C.ar    
  15 C15            0.9876    -1.7719    -0.1733 C.ar    
  16 C16           -0.3997    -8.4952     1.0151 C.ar    
  17 C17            0.3145    -4.5039    -3.2476 C.ar    
  18 C18           -1.3915    -2.9714    -2.4296 C.ar    
  19 C19           -1.1093    -0.3597     0.9712 C.ar    
  20 C20            1.0437    -0.3956    -0.1040 C.ar    
  21 C21            0.1763    -3.9711    -4.4974 C.ar    
  22 C22           -1.5124    -2.4541    -3.6877 C.ar    
  23 C23            0.1742    -9.6690     1.5452 C.ar    
  24 C24           -1.2489    -8.5839    -0.1070 C.ar    
  25 C25           -0.0053     0.3150     0.4656 C.ar    
  26 C26           -0.7313    -2.9459    -4.7242 C.ar    
  27 C27           -0.0939   -10.8757     0.9644 C.ar    
  28 C28           -1.5018    -9.8022    -0.6701 C.ar    
  29 C29           -0.9266   -10.9494    -0.1429 C.ar    
  30 H30           -0.4485    -6.8159    -1.2373 H       
  31 H31            0.1149    -7.1839     2.6555 H       
  32 H32           -2.0267    -2.2603     1.2952 H       
  33 H33            1.8034    -2.3242    -0.6159 H       
  34 H34            1.0217    -5.3014    -3.0733 H       
  35 H35           -2.0005    -2.5873    -1.6246 H       
  36 H36           -1.9222     0.1936     1.4178 H       
  37 H37            1.9036     0.1298    -0.4924 H       
  38 H38            0.7759    -4.3488    -5.3124 H       
  39 H39           -2.2186    -1.6591    -3.8769 H       
  40 H40            0.8233    -9.6140     2.4066 H       
  41 H41           -1.6978    -7.6923    -0.5191 H       
  42 H42           -0.8338    -2.5307    -5.7159 H       
  43 H43            0.3445   -11.7762     1.3685 H       
  44 H44           -2.1523    -9.8729    -1.5294 H       
  45 H45            0.4625     2.0075     1.3411 H       
@<TRIPOS>BOND
   1    1    9 2
   2    2   25 1
   3    2   45 1
   4    3    6 2
   5    4    6 2
   6    5    7 1
   7    5    9 am
   8    5   11 1
   9    6   29 1
  10    7   10 2
  11    7   12 1
  12    8    9 1
  13    8   10 1
  14    8   13 2
  15   10   30 1
  16   11   14 ar
  17   11   15 ar
  18   12   17 ar
  19   12   18 ar
  20   13   16 1
  21   13   31 1
  22   14   19 ar
  23   14   32 1
  24   15   20 ar
  25   15   33 1
  26   16   23 ar
  27   16   24 ar
  28   17   21 ar
  29   17   34 1
  30   18   22 ar
  31   18   35 1
  32   19   25 ar
  33   19   36 1
  34   20   25 ar
  35   20   37 1
  36   21   26 ar
  37   21   38 1
  38   22   26 ar
  39   22   39 1
  40   23   27 ar
  41   23   40 1
  42   24   28 ar
  43   24   41 1
  44   26   42 1
  45   27   29 ar
  46   27   43 1
  47   28   29 ar
  48   28   44 1

#	End of record

#	Name: 5345764
#	Creating user name:	landrgr1
#	Creation time:	28. 01. 2015 13:52

#	Modifying user name:	landrgr1
#	Modification time:	28. 01. 2015 13:52

#	Program:	corina 3.48 0006  22.01.2010

@<TRIPOS>MOLECULE
5345764
  34   36    0    0    0
SMALL
NO_CHARGES


@<TRIPOS>ATOM
   1 S1            -1.1765    -4.0221    -2.4548 S.2     
   2 O2             1.1147    -8.7770     2.0978 O.2     
   3 O3            -0.6780     1.3170     0.1715 O.3     
   4 N4             0.2733    -6.8714    -0.1133 N.pl3   
   5 N5             0.8073   -10.3493     0.4975 N.2     
   6 N6            -0.2878    -6.1878    -1.1999 N.am    
   7 N7            -0.1541    -4.1846    -0.0087 N.am    
   8 C8             0.1618    -9.0558    -1.2562 C.2     
   9 C9             0.3975    -8.2003    -0.1526 C.2     
  10 C10            0.4269   -10.3774    -0.8118 C.2     
  11 C11           -0.2480    -8.8280    -2.5754 C.2     
  12 C12            0.8183    -9.1143     0.9661 C.2     
  13 C13            0.2725   -11.4321    -1.7073 C.2     
  14 C14           -0.3914    -9.8946    -3.4410 C.2     
  15 C15           -0.1333   -11.1856    -3.0091 C.2     
  16 C16           -0.2868    -2.7907     0.0368 C.ar    
  17 C17           -0.4909    -4.8574    -1.1270 C.2     
  18 C18           -1.4502    -2.1883    -0.4231 C.ar    
  19 C19            0.7427    -2.0113     0.5472 C.ar    
  20 C20           -1.5805    -0.8143    -0.3774 C.ar    
  21 C21            0.6113    -0.6374     0.5918 C.ar    
  22 C22           -0.5492    -0.0359     0.1273 C.ar    
  23 H23           -0.4507    -7.8229    -2.9146 H       
  24 H24            0.4696   -12.4444    -1.3868 H       
  25 H25            0.5716    -6.3793     0.6676 H       
  26 H26           -0.7078    -9.7216    -4.4591 H       
  27 H27           -0.2497   -12.0107    -3.6961 H       
  28 H28           -0.5302    -6.6720    -2.0047 H       
  29 H29            0.1801    -4.6655     0.7645 H       
  30 H30           -2.2530    -2.7942    -0.8167 H       
  31 H31            1.6462    -2.4795     0.9092 H       
  32 H32           -2.4854    -0.3457    -0.7351 H       
  33 H33            1.4120    -0.0310     0.9887 H       
  34 H34           -1.0659     1.6486     0.9929 H       
@<TRIPOS>BOND
   1    1   17 2
   2    2   12 2
   3    3   22 1
   4    3   34 1
   5    4    6 1
   6    4    9 1
   7    4   25 1
   8    5   10 2
   9    5   12 1
  10    6   17 am
  11    6   28 1
  12    7   16 1
  13    7   17 am
  14    7   29 1
  15    8    9 2
  16    8   10 1
  17    8   11 1
  18    9   12 1
  19   10   13 1
  20   11   14 2
  21   11   23 1
  22   13   15 2
  23   13   24 1
  24   14   15 1
  25   14   26 1
  26   15   27 1
  27   16   18 ar
  28   16   19 ar
  29   18   20 ar
  30   18   30 1
  31   19   21 ar
  32   19   31 1
  33   20   22 ar
  34   20   32 1
  35   21   22 ar
  36   21   33 1

#	End of record

#	Name: 5345697
#	Creating user name:	landrgr1
#	Creation time:	28. 01. 2015 13:52

#	Modifying user name:	landrgr1
#	Modification time:	28. 01. 2015 13:52

#	Program:	corina 3.48 0006  22.01.2010

@<TRIPOS>MOLECULE
5345697
  30   32    0    0    0
SMALL
NO_CHARGES


@<TRIPOS>ATOM
   1 S1            -0.0449     1.7184     0.6122 S.3     
   2 O2            -5.4854    -6.5275    -2.1076 O.3     
   3 O3            -7.5679    -5.7864    -1.6127 O.3     
   4 O4            -1.0429    -2.0651    -0.0813 O.2     
   5 N5            -3.3742    -2.3196    -0.6966 N.pl3   
   6 C6            -5.3915    -5.2539    -1.6254 C.ar    
   7 C7            -6.6718    -4.7976    -1.3208 C.ar    
   8 C8            -4.4787    -3.1522    -0.9065 C.ar    
   9 C9            -4.2976    -4.4305    -1.4178 C.ar    
  10 C10           -6.8483    -3.5215    -0.8103 C.ar    
  11 C11           -5.7567    -2.7005    -0.6031 C.ar    
  12 C12           -6.7892    -6.9934    -1.7125 C.3     
  13 C13           -3.5527    -1.0606    -0.1931 C.2     
  14 C14           -2.4816    -0.3026     0.1250 C.2     
  15 C15           -0.0081    -0.0159     0.3250 C.2     
  16 C16           -1.1840    -0.8689     0.1101 C.2     
  17 C17            1.2896    -0.4427     0.3331 C.2     
  18 C18            2.1936     0.5694     0.5572 C.2     
  19 C19            1.6562     1.7828     0.7269 C.2     
  20 H20           -3.3041    -4.7825    -1.6530 H       
  21 H21           -7.8411    -3.1681    -0.5741 H       
  22 H22           -5.8971    -1.7064    -0.2051 H       
  23 H23           -7.2053    -7.6560    -2.4714 H       
  24 H24           -6.7394    -7.4979    -0.7476 H       
  25 H25           -2.4817    -2.6353    -0.9083 H       
  26 H26           -4.5504    -0.6728    -0.0499 H       
  27 H27           -2.6146     0.7357     0.3909 H       
  28 H28            1.5771    -1.4723     0.1792 H       
  29 H29            3.2591     0.3971     0.5939 H       
  30 H30            2.2235     2.6831     0.9114 H       
@<TRIPOS>BOND
   1    1   15 1
   2    1   19 1
   3    2    6 1
   4    2   12 1
   5    3    7 1
   6    3   12 1
   7    4   16 2
   8    5    8 1
   9    5   13 1
  10    5   25 1
  11    6    7 ar
  12    6    9 ar
  13    7   10 ar
  14    8    9 ar
  15    8   11 ar
  16    9   20 1
  17   10   11 ar
  18   10   21 1
  19   11   22 1
  20   12   23 1
  21   12   24 1
  22   13   14 2
  23   13   26 1
  24   14   16 1
  25   14   27 1
  26   15   16 1
  27   15   17 2
  28   17   18 1
  29   17   28 1
  30   18   19 2
  31   18   29 1
  32   19   30 1

#	End of record

#	Name: 5345312
#	Creating user name:	landrgr1
#	Creation time:	28. 01. 2015 13:52

#	Modifying user name:	landrgr1
#	Modification time:	28. 01. 2015 13:52

#	Program:	corina 3.48 0006  22.01.2010

@<TRIPOS>MOLECULE
5345312
  44   46    0    0    0
SMALL
NO_CHARGES


@<TRIPOS>ATOM
   1 O1            -2.7657     0.8413    -0.3220 O.2     
   2 O2             0.1478     1.1343    -0.4866 O.3     
   3 O3            -4.7792     1.1096     0.0743 O.3     
   4 O4             1.2015    -0.8009    -0.2025 O.2     
   5 N5            -2.5864    -2.5614     0.2432 N.pl3   
   6 C6            -1.2791    -2.2635     0.1410 C.2     
   7 C7            -3.3604    -1.4175     0.0818 C.2     
   8 C8            -3.0969    -3.8446     0.4740 C.ar    
   9 C9            -1.1205    -0.9117    -0.0926 C.2     
  10 C10           -2.4710    -0.3287    -0.1367 C.2     
  11 C11           -2.8767    -4.8576    -0.4501 C.ar    
  12 C12           -3.8196    -4.1084     1.6302 C.ar    
  13 C13           -0.1534    -3.2579     0.2632 C.3     
  14 C14           -3.3812    -6.1224    -0.2193 C.ar    
  15 C15           -4.3214    -5.3753     1.8551 C.ar    
  16 C16           -4.7348    -1.3508     0.1251 C.2     
  17 C17           -4.1049    -6.3806     0.9305 C.ar    
  18 C18            0.1488    -0.1954    -0.2630 C.2     
  19 C19           -5.3822    -0.0980     0.0793 C.2     
  20 C20           -3.1432    -7.2222    -1.2217 C.3     
  21 C21           -5.1053    -5.6626     3.1097 C.3     
  22 C22           -6.7480     0.1127     0.0314 C.2     
  23 C23           -6.9359     1.5013    -0.0024 C.2     
  24 C24           -5.7099     2.0724     0.0253 C.2     
  25 C25            1.4400     1.7770    -0.6455 C.3     
  26 H26           -2.3119    -4.6566    -1.3484 H       
  27 H27           -3.9887    -3.3239     2.3528 H       
  28 H28            0.1249    -3.6153    -0.7282 H       
  29 H29            0.7062    -2.7779     0.7310 H       
  30 H30           -0.4772    -4.0997     0.8753 H       
  31 H31           -5.3176    -2.2575     0.1941 H       
  32 H32           -4.4984    -7.3704     1.1086 H       
  33 H33           -2.2186    -7.7443    -0.9756 H       
  34 H34           -3.9758    -7.9252    -1.1943 H       
  35 H35           -3.0632    -6.7925    -2.2203 H       
  36 H36           -6.1634    -5.4736     2.9283 H       
  37 H37           -4.9662    -6.7056     3.3942 H       
  38 H38           -4.7534    -5.0166     3.9139 H       
  39 H39           -7.5186    -0.6440     0.0217 H       
  40 H40           -7.8829     2.0188    -0.0434 H       
  41 H41           -5.5129     3.1342     0.0106 H       
  42 H42            2.0313     1.6326     0.2588 H       
  43 H43            1.9624     1.3376    -1.4952 H       
  44 H44            1.2965     2.8435    -0.8192 H       
@<TRIPOS>BOND
   1    1   10 2
   2    2   18 1
   3    2   25 1
   4    3   19 1
   5    3   24 1
   6    4   18 2
   7    5    6 1
   8    5    7 1
   9    5    8 1
  10    6    9 2
  11    6   13 1
  12    7   10 1
  13    7   16 2
  14    8   11 ar
  15    8   12 ar
  16    9   10 1
  17    9   18 1
  18   11   14 ar
  19   11   26 1
  20   12   15 ar
  21   12   27 1
  22   13   28 1
  23   13   29 1
  24   13   30 1
  25   14   17 ar
  26   14   20 1
  27   15   17 ar
  28   15   21 1
  29   16   19 1
  30   16   31 1
  31   17   32 1
  32   19   22 2
  33   20   33 1
  34   20   34 1
  35   20   35 1
  36   21   36 1
  37   21   37 1
  38   21   38 1
  39   22   23 1
  40   22   39 1
  41   23   24 2
  42   23   40 1
  43   24   41 1
  44   25   42 1
  45   25   43 1
  46   25   44 1

#	End of record

#	Name: 5342394
#	Creating user name:	landrgr1
#	Creation time:	28. 01. 2015 13:52

#	Modifying user name:	landrgr1
#	Modification time:	28. 01. 2015 13:52

#	Program:	corina 3.48 0006  22.01.2010

@<TRIPOS>MOLECULE
5342394
  40   43    0    0    0
SMALL
NO_CHARGES


@<TRIPOS>ATOM
   1 S1            -0.0074     1.6882    -0.3166 S.3     
   2 O2            -4.3668    -1.0098     2.1911 O.2     
   3 N3            -3.8943     1.5766     1.0282 N.pl3   
   4 N4            -1.7425     1.7536     1.4334 N.2     
   5 N5            -3.5289    -1.2295     0.1458 N.am    
   6 C6            -3.6830     2.8315     1.5676 C.ar    
   7 C7            -2.6738     0.9521     0.9653 C.2     
   8 C8            -2.3019     2.9248     1.8195 C.ar    
   9 C9            -2.4432    -0.4049     0.4540 C.2     
  10 C10           -4.5152     3.8991     1.8704 C.ar    
  11 C11           -1.7821     4.0993     2.3743 C.ar    
  12 C12           -1.1758    -0.8586     0.2807 C.2     
  13 C13           -3.9855     5.0494     2.4177 C.ar    
  14 C14           -2.6241     5.1478     2.6670 C.ar    
  15 C15           -0.0488     0.0688     0.3688 C.2     
  16 C16           -4.4360    -1.5324     1.0954 C.2     
  17 C17           -5.5150    -2.4999     0.8050 C.ar    
  18 C18            1.1375    -0.1861     0.9965 C.2     
  19 C19           -6.4562    -2.8159     1.7864 C.ar    
  20 C20           -5.6008    -3.0973    -0.4537 C.ar    
  21 C21            2.0431     0.8493     0.9413 C.2     
  22 C22           -7.4610    -3.7194     1.5086 C.ar    
  23 C23           -6.6107    -3.9992    -0.7183 C.ar    
  24 C24            1.6251     1.9380     0.2863 C.2     
  25 C25           -7.5372    -4.3119     0.2606 C.ar    
  26 H26           -4.7462     1.2052     0.7500 H       
  27 H27           -5.5756     3.8302     1.6777 H       
  28 H28           -0.7238     4.1827     2.5725 H       
  29 H29           -0.9997    -1.9046     0.0777 H       
  30 H30           -3.6295    -1.5837    -0.7516 H       
  31 H31           -4.6349     5.8796     2.6527 H       
  32 H32           -2.2222     6.0541     3.0953 H       
  33 H33            1.3471    -1.1211     1.4947 H       
  34 H34           -6.3976    -2.3544     2.7611 H       
  35 H35           -4.8785    -2.8538    -1.2188 H       
  36 H36            3.0212     0.7870     1.3950 H       
  37 H37           -8.1895    -3.9650     2.2670 H       
  38 H38           -6.6784    -4.4618    -1.6918 H       
  39 H39            2.2056     2.8381     0.1475 H       
  40 H40           -8.3258    -5.0186     0.0482 H       
@<TRIPOS>BOND
   1    1   15 1
   2    1   24 1
   3    2   16 2
   4    3    6 1
   5    3    7 1
   6    3   26 1
   7    4    7 2
   8    4    8 1
   9    5    9 1
  10    5   16 am
  11    5   30 1
  12    6    8 ar
  13    6   10 ar
  14    7    9 1
  15    8   11 ar
  16    9   12 2
  17   10   13 ar
  18   10   27 1
  19   11   14 ar
  20   11   28 1
  21   12   15 1
  22   12   29 1
  23   13   14 ar
  24   13   31 1
  25   14   32 1
  26   15   18 2
  27   16   17 1
  28   17   19 ar
  29   17   20 ar
  30   18   21 1
  31   18   33 1
  32   19   22 ar
  33   19   34 1
  34   20   23 ar
  35   20   35 1
  36   21   24 2
  37   21   36 1
  38   22   25 ar
  39   22   37 1
  40   23   25 ar
  41   23   38 1
  42   24   39 1
  43   25   40 1

#	End of record

#	Name: 5341050
#	Creating user name:	landrgr1
#	Creation time:	28. 01. 2015 13:52

#	Modifying user name:	landrgr1
#	Modification time:	28. 01. 2015 13:52

#	Program:	corina 3.48 0006  22.01.2010

@<TRIPOS>MOLECULE
5341050
  40   41    0    0    0
SMALL
NO_CHARGES


@<TRIPOS>ATOM
   1 O1            -0.0162     1.3438     0.0094 O.3     
   2 O2             1.0629    -0.5975    -0.0113 O.2     
   3 N3            -3.4341    -1.1927     0.0284 N.2     
   4 N4            -3.3720    -3.5842     0.0146 N.2     
   5 N5            -4.6585    -3.6776     0.0264 N.pl3   
   6 C6            -1.4049    -2.1416     0.0040 C.2     
   7 C7            -1.2605    -0.7561     0.0100 C.2     
   8 C8            -2.5676    -0.2149     0.0254 C.2     
   9 C9            -2.7926    -2.3885     0.0159 C.2     
  10 C10           -0.3016    -3.1680    -0.0116 C.3     
  11 C11           -5.2662    -4.9318     0.0251 C.ar    
  12 C12           -2.9061     1.2536     0.0365 C.3     
  13 C13            0.0021    -0.0041     0.0020 C.2     
  14 C14           -6.6530    -5.0346     0.0378 C.ar    
  15 C15           -4.4876    -6.0835     0.0052 C.ar    
  16 C16           -7.2511    -6.2787     0.0360 C.ar    
  17 C17           -7.5017    -3.7894     0.0542 C.3     
  18 C18           -5.0935    -7.3243     0.0035 C.ar    
  19 C19           -6.4729    -7.4223     0.0219 C.ar    
  20 C20            1.2684     2.0206     0.0008 C.3     
  21 C21            1.0474     3.5345     0.0110 C.3     
  22 H22           -0.0262    -3.4209     1.0122 H       
  23 H23           -0.6465    -4.0643    -0.5271 H       
  24 H24            0.5658    -2.7611    -0.5313 H       
  25 H25           -3.9890     1.3767     0.0480 H       
  26 H26           -2.4781     1.7183     0.9248 H       
  27 H27           -2.4958     1.7277    -0.8551 H       
  28 H28           -5.2030    -2.8749     0.0363 H       
  29 H29           -3.4104    -6.0077    -0.0092 H       
  30 H30           -8.3281    -6.3593     0.0459 H       
  31 H31           -7.7163    -3.4825    -0.9695 H       
  32 H32           -8.4367    -3.9938     0.5757 H       
  33 H33           -6.9660    -2.9913     0.5680 H       
  34 H34           -4.4894    -8.2194    -0.0124 H       
  35 H35           -6.9438    -8.3943     0.0212 H       
  36 H36            1.8378     1.7305     0.8838 H       
  37 H37            1.8208     1.7401    -0.8960 H       
  38 H38            0.4780     3.8245    -0.8720 H       
  39 H39            0.4950     3.8150     0.9079 H       
  40 H40            2.0118     4.0425     0.0046 H       
@<TRIPOS>BOND
   1    1   13 1
   2    1   20 1
   3    2   13 2
   4    3    8 2
   5    3    9 1
   6    4    5 1
   7    4    9 2
   8    5   11 1
   9    5   28 1
  10    6    7 2
  11    6    9 1
  12    6   10 1
  13    7    8 1
  14    7   13 1
  15    8   12 1
  16   10   22 1
  17   10   23 1
  18   10   24 1
  19   11   14 ar
  20   11   15 ar
  21   12   25 1
  22   12   26 1
  23   12   27 1
  24   14   16 ar
  25   14   17 1
  26   15   18 ar
  27   15   29 1
  28   16   19 ar
  29   16   30 1
  30   17   31 1
  31   17   32 1
  32   17   33 1
  33   18   19 ar
  34   18   34 1
  35   19   35 1
  36   20   21 1
  37   20   36 1
  38   20   37 1
  39   21   38 1
  40   21   39 1
  41   21   40 1

#	End of record

#	Name: 5340232
#	Creating user name:	landrgr1
#	Creation time:	28. 01. 2015 13:52

#	Modifying user name:	landrgr1
#	Modification time:	28. 01. 2015 13:52

#	Program:	corina 3.48 0006  22.01.2010

@<TRIPOS>MOLECULE
5340232
  36   37    0    0    0
SMALL
NO_CHARGES


@<TRIPOS>ATOM
   1 O1             0.4523     1.3328     0.1128 O.3     
   2 O2             2.1690    -4.4292    -0.2466 O.2     
   3 O3            -2.9995    -2.0312     1.5329 O.2     
   4 O4            -2.1507    -3.9107     1.0887 O.2     
   5 N5            -0.0371    -4.1647    -0.2094 N.am    
   6 N6            -2.0873    -2.6945     1.0731 N.pl3   
   7 C7             0.0869    -2.7726    -0.1276 C.ar    
   8 C8            -0.9016    -2.0225     0.4955 C.ar    
   9 C9             1.2014    -2.1415    -0.6651 C.ar    
  10 C10           -0.7785    -0.6493     0.5757 C.ar    
  11 C11            0.3321    -0.0193     0.0337 C.ar    
  12 C12            1.3228    -0.7686    -0.5844 C.ar    
  13 C13            1.0639    -4.9340    -0.3202 C.2     
  14 C14            1.8983    -8.5972    -0.8503 C.ar    
  15 C15            0.9307    -6.3768    -0.5293 C.2     
  16 C16            2.0322    -7.1464    -0.6402 C.2     
  17 C17            3.0383    -9.3987    -0.9658 C.ar    
  18 C18            0.6304    -9.1817    -0.9297 C.ar    
  19 C19            2.9046   -10.7570    -1.1621 C.ar    
  20 C20            0.5132   -10.5415    -1.1263 C.ar    
  21 C21            1.6463   -11.3273    -1.2453 C.ar    
  22 C22            1.6217     1.9150    -0.4666 C.3     
  23 H23            1.9730    -2.7247    -1.1456 H       
  24 H24           -1.5474    -0.0657     1.0600 H       
  25 H25            2.1893    -0.2778    -1.0023 H       
  26 H26           -0.9155    -4.5755    -0.1863 H       
  27 H27            3.0128    -6.6985    -0.5748 H       
  28 H28           -0.0498    -6.8247    -0.5947 H       
  29 H29            4.0209    -8.9551    -0.9018 H       
  30 H30           -0.2547    -8.5698    -0.8370 H       
  31 H31            3.7841   -11.3775    -1.2515 H       
  32 H32           -0.4653   -10.9944    -1.1878 H       
  33 H33            1.5480   -12.3917    -1.3999 H       
  34 H34            1.6558     1.6796    -1.5304 H       
  35 H35            1.5925     2.9966    -0.3346 H       
  36 H36            2.5086     1.5130     0.0231 H       
@<TRIPOS>BOND
   1    1   11 1
   2    1   22 1
   3    2   13 2
   4    3    6 2
   5    4    6 2
   6    5    7 1
   7    5   13 am
   8    5   26 1
   9    6    8 1
  10    7    8 ar
  11    7    9 ar
  12    8   10 ar
  13    9   12 ar
  14    9   23 1
  15   10   11 ar
  16   10   24 1
  17   11   12 ar
  18   12   25 1
  19   13   15 1
  20   14   16 1
  21   14   17 ar
  22   14   18 ar
  23   15   16 2
  24   15   28 1
  25   16   27 1
  26   17   19 ar
  27   17   29 1
  28   18   20 ar
  29   18   30 1
  30   19   21 ar
  31   19   31 1
  32   20   21 ar
  33   20   32 1
  34   21   33 1
  35   22   34 1
  36   22   35 1
  37   22   36 1

#	End of record

#	Name: 5337889
#	Creating user name:	landrgr1
#	Creation time:	28. 01. 2015 13:52

#	Modifying user name:	landrgr1
#	Modification time:	28. 01. 2015 13:52

#	Program:	corina 3.48 0006  22.01.2010

@<TRIPOS>MOLECULE
5337889
  51   52    0    0    0
SMALL
NO_CHARGES


@<TRIPOS>ATOM
   1 O1            -0.9721     0.7196    -0.0174 O.3     
   2 O2            -2.9793    -0.7328    -1.2132 O.3     
   3 O3             8.8279    -8.4674    -0.5025 O.3     
   4 O4             4.5976    -4.1954    -0.7823 O.2     
   5 O5             1.7080    -6.1956    -2.3920 O.2     
   6 O6            -2.2957     0.2672    -3.0617 O.2     
   7 N7             3.7733    -6.2289    -0.4312 N.am    
   8 N8             1.1497    -5.1327    -0.5262 N.am    
   9 C9             0.7918    -2.3767    -0.8067 C.ar    
  10 C10            2.1318    -2.9641    -0.6640 C.2     
  11 C11            2.2783    -4.3085    -0.6010 C.2     
  12 C12            0.5389    -1.0834    -0.3363 C.ar    
  13 C13           -0.7225    -0.5367    -0.4737 C.ar    
  14 C14           -0.2333    -3.1073    -1.4182 C.ar    
  15 C15           -1.7394    -1.2728    -1.0797 C.ar    
  16 C16           -1.4880    -2.5540    -1.5514 C.ar    
  17 C17            5.0533    -6.7958    -0.4490 C.ar    
  18 C18            3.6215    -4.9019    -0.6112 C.2     
  19 C19            5.2194    -8.1250    -0.8154 C.ar    
  20 C20            6.1582    -6.0277    -0.1058 C.ar    
  21 C21            7.5848    -7.9168    -0.4852 C.ar    
  22 C22            6.4822    -8.6833    -0.8332 C.ar    
  23 C23            7.4203    -6.5875    -0.1241 C.ar    
  24 C24            0.8922    -6.0140    -1.5128 C.2     
  25 C25            0.1160     1.4163     0.5931 C.3     
  26 C26           -0.4091    -6.7739    -1.5238 C.3     
  27 C27           -3.1729     0.1008    -2.2476 C.2     
  28 C28           -4.4842     0.8290    -2.3933 C.3     
  29 C29            9.9178    -7.6205    -0.1326 C.3     
  30 H30            2.9993    -2.3231    -0.6094 H       
  31 H31            1.3276    -0.5141     0.1330 H       
  32 H32           -0.0406    -4.1041    -1.7865 H       
  33 H33           -2.2782    -3.1187    -2.0238 H       
  34 H34            2.9958    -6.7912    -0.2892 H       
  35 H35            0.5528    -5.0697     0.2358 H       
  36 H36            4.3610    -8.7220    -1.0861 H       
  37 H37            6.0304    -4.9927     0.1750 H       
  38 H38            6.6114    -9.7171    -1.1178 H       
  39 H39            8.2797    -5.9903     0.1428 H       
  40 H40            0.4670     0.8546     1.4588 H       
  41 H41            0.9288     1.5218    -0.1254 H       
  42 H42           -0.2178     2.4038     0.9117 H       
  43 H43           -0.2905    -7.7056    -0.9706 H       
  44 H44           -1.1865    -6.1699    -1.0557 H       
  45 H45           -0.6917    -6.9957    -2.5529 H       
  46 H46           -4.4298     1.7836    -1.8699 H       
  47 H47           -4.6867     1.0049    -3.4498 H       
  48 H48           -5.2846     0.2253    -1.9655 H       
  49 H49            9.7702    -7.2625     0.8864 H       
  50 H50           10.8500    -8.1825    -0.1888 H       
  51 H51            9.9645    -6.7703    -0.8131 H       
@<TRIPOS>BOND
   1    1   13 1
   2    1   25 1
   3    2   15 1
   4    2   27 1
   5    3   21 1
   6    3   29 1
   7    4   18 2
   8    5   24 2
   9    6   27 2
  10    7   17 1
  11    7   18 am
  12    7   34 1
  13    8   11 1
  14    8   24 am
  15    8   35 1
  16    9   10 1
  17    9   12 ar
  18    9   14 ar
  19   10   11 2
  20   10   30 1
  21   11   18 1
  22   12   13 ar
  23   12   31 1
  24   13   15 ar
  25   14   16 ar
  26   14   32 1
  27   15   16 ar
  28   16   33 1
  29   17   19 ar
  30   17   20 ar
  31   19   22 ar
  32   19   36 1
  33   20   23 ar
  34   20   37 1
  35   21   22 ar
  36   21   23 ar
  37   22   38 1
  38   23   39 1
  39   24   26 1
  40   25   40 1
  41   25   41 1
  42   25   42 1
  43   26   43 1
  44   26   44 1
  45   26   45 1
  46   27   28 1
  47   28   46 1
  48   28   47 1
  49   28   48 1
  50   29   49 1
  51   29   50 1
  52   29   51 1

#	End of record

#	Name: 5337190
#	Creating user name:	landrgr1
#	Creation time:	28. 01. 2015 13:52

#	Modifying user name:	landrgr1
#	Modification time:	28. 01. 2015 13:52

#	Program:	corina 3.48 0006  22.01.2010

@<TRIPOS>MOLECULE
5337190
  46   48    0    0    0
SMALL
NO_CHARGES


@<TRIPOS>ATOM
   1 O1             0.1631     1.2183     0.4297 O.3     
   2 O2            -4.4621     0.6214    -1.0528 O.2     
   3 O3            -0.3466    -2.5749    -0.9763 O.2     
   4 O4             1.1477    -0.8319    -0.0829 O.3     
   5 C5            -2.4413     0.1692     0.0871 C.2     
   6 C6            -3.8186    -1.6492    -0.9751 C.ar    
   7 C7            -2.6796    -2.4785    -0.9949 C.ar    
   8 C8            -1.2080    -0.6088    -0.1983 C.2     
   9 C9            -3.6513    -0.2080    -0.6824 C.2     
  10 C10           -1.3420    -1.9143    -0.7323 C.2     
  11 C11           -2.4610     1.1816     1.0195 C.2     
  12 C12           -3.7308     1.8193     1.3830 C.ar    
  13 C13           -5.0773    -2.1857    -1.2268 C.ar    
  14 C14           -2.8309    -3.8375    -1.2664 C.ar    
  15 C15           -6.1296     3.0239     2.0705 C.ar    
  16 C16           -4.9181     1.0754     1.3839 C.ar    
  17 C17           -3.7628     3.1746     1.7369 C.ar    
  18 C18            0.0473    -0.0685     0.0521 C.2     
  19 C19           -7.4343     3.6791     2.4440 C.3     
  20 C20           -6.1066     1.6827     1.7272 C.ar    
  21 C21           -4.9603     3.7654     2.0774 C.ar    
  22 C22           -5.2044    -3.5351    -1.4946 C.ar    
  23 C23           -4.0873    -4.3540    -1.5131 C.ar    
  24 C24           -7.6560     3.5509     3.9524 C.3     
  25 C25            1.5053     1.7153     0.6743 C.3     
  26 C26            1.4365     3.1860     1.0905 C.3     
  27 H27           -1.5413     1.5063     1.4834 H       
  28 H28           -5.9507    -1.5506    -1.2127 H       
  29 H29           -1.9667    -4.4851    -1.2840 H       
  30 H30           -4.9019     0.0293     1.1160 H       
  31 H31           -2.8516     3.7544     1.7431 H       
  32 H32           -7.4029     4.7336     2.1697 H       
  33 H33           -8.2514     3.1899     1.9138 H       
  34 H34           -7.0233     1.1118     1.7248 H       
  35 H35           -4.9875     4.8110     2.3465 H       
  36 H36           -6.1805    -3.9539    -1.6903 H       
  37 H37           -4.2003    -5.4073    -1.7229 H       
  38 H38           -6.8389     4.0400     4.4826 H       
  39 H39           -8.5997     4.0248     4.2225 H       
  40 H40           -7.6874     2.4964     4.2267 H       
  41 H41            1.9686     1.1335     1.4711 H       
  42 H42            2.0985     1.6225    -0.2354 H       
  43 H43            1.4551    -1.3022     0.7042 H       
  44 H44            0.8433     3.2788     2.0003 H       
  45 H45            2.4441     3.5591     1.2742 H       
  46 H46            0.9732     3.7679     0.2937 H       
@<TRIPOS>BOND
   1    1   18 1
   2    1   25 1
   3    2    9 2
   4    3   10 2
   5    4   18 1
   6    4   43 1
   7    5    8 1
   8    5    9 1
   9    5   11 2
  10    6    7 ar
  11    6    9 1
  12    6   13 ar
  13    7   10 1
  14    7   14 ar
  15    8   10 1
  16    8   18 2
  17   11   12 1
  18   11   27 1
  19   12   16 ar
  20   12   17 ar
  21   13   22 ar
  22   13   28 1
  23   14   23 ar
  24   14   29 1
  25   15   19 1
  26   15   20 ar
  27   15   21 ar
  28   16   20 ar
  29   16   30 1
  30   17   21 ar
  31   17   31 1
  32   19   24 1
  33   19   32 1
  34   19   33 1
  35   20   34 1
  36   21   35 1
  37   22   23 ar
  38   22   36 1
  39   23   37 1
  40   24   38 1
  41   24   39 1
  42   24   40 1
  43   25   26 1
  44   25   41 1
  45   25   42 1
  46   26   44 1
  47   26   45 1
  48   26   46 1

#	End of record

#	Name: 5336464
#	Creating user name:	landrgr1
#	Creation time:	28. 01. 2015 13:52

#	Modifying user name:	landrgr1
#	Modification time:	28. 01. 2015 13:52

#	Program:	corina 3.48 0006  22.01.2010

@<TRIPOS>MOLECULE
5336464
  41   43    0    0    0
SMALL
NO_CHARGES


@<TRIPOS>ATOM
   1 S1             0.1256     1.5596    -0.2854 S.3     
   2 O2             1.4997     0.1776     1.9462 O.3     
   3 O3            13.4921    -1.3053     2.6007 O.3     
   4 O4             8.4484    -0.9032     6.3590 O.2     
   5 C5             1.6386     0.1158     0.5253 C.3     
   6 C6             0.2837    -0.2593    -0.1481 C.3     
   7 C7             1.9427     1.5267    -0.0636 C.3     
   8 C8             2.6255     0.0013     2.6836 C.ar    
   9 C9             2.5421    -0.0650     4.0700 C.ar    
  10 C10            3.8572    -0.1180     2.0497 C.ar    
  11 C11            4.9243    -0.3590     4.1895 C.ar    
  12 C12            3.6806    -0.2436     4.8226 C.ar    
  13 C13            5.0018    -0.2977     2.7927 C.ar    
  14 C14            6.1428    -0.5498     4.9877 C.2     
  15 C15            9.8294    -0.9665     4.4742 C.ar    
  16 C16            7.3424    -0.6609     4.3740 C.2     
  17 C17            8.5189    -0.8451     5.1446 C.2     
  18 C18           10.9897    -1.1481     5.2318 C.ar    
  19 C19            9.9117    -0.9059     3.0804 C.ar    
  20 C20           12.2878    -1.1942     3.2167 C.ar    
  21 C21           12.2095    -1.2608     4.6030 C.ar    
  22 C22           11.1353    -1.0195     2.4593 C.ar    
  23 C23           13.5005    -1.2281     1.1738 C.3     
  24 H24            2.4181    -0.5945     0.2496 H       
  25 H25           -0.4386    -0.7244     0.5227 H       
  26 H26            0.3835    -0.7756    -1.1029 H       
  27 H27            2.5094     1.5131    -0.9946 H       
  28 H28            2.3203     2.2459     0.6633 H       
  29 H29            1.5824     0.0241     4.5572 H       
  30 H30            3.9159    -0.0698     0.9724 H       
  31 H31            3.6148    -0.2944     5.8994 H       
  32 H32            5.9580    -0.3906     2.2993 H       
  33 H33            6.0803    -0.6013     6.0646 H       
  34 H34            7.4049    -0.6095     3.2970 H       
  35 H35           10.9298    -1.1995     6.3089 H       
  36 H36            9.0167    -0.7705     2.4913 H       
  37 H37           13.1067    -1.4007     5.1877 H       
  38 H38           11.1997    -0.9731     1.3822 H       
  39 H39           12.8864    -2.0294     0.7630 H       
  40 H40           13.0986    -0.2648     0.8597 H       
  41 H41           14.5229    -1.3311     0.8104 H       
@<TRIPOS>BOND
   1    1    6 1
   2    1    7 1
   3    2    5 1
   4    2    8 1
   5    3   20 1
   6    3   23 1
   7    4   17 2
   8    5    6 1
   9    5    7 1
  10    5   24 1
  11    6   25 1
  12    6   26 1
  13    7   27 1
  14    7   28 1
  15    8    9 ar
  16    8   10 ar
  17    9   12 ar
  18    9   29 1
  19   10   13 ar
  20   10   30 1
  21   11   12 ar
  22   11   13 ar
  23   11   14 1
  24   12   31 1
  25   13   32 1
  26   14   16 2
  27   14   33 1
  28   15   17 1
  29   15   18 ar
  30   15   19 ar
  31   16   17 1
  32   16   34 1
  33   18   21 ar
  34   18   35 1
  35   19   22 ar
  36   19   36 1
  37   20   21 ar
  38   20   22 ar
  39   21   37 1
  40   22   38 1
  41   23   39 1
  42   23   40 1
  43   23   41 1

#	End of record

#	Name: 5335557
#	Creating user name:	landrgr1
#	Creation time:	28. 01. 2015 13:52

#	Modifying user name:	landrgr1
#	Modification time:	28. 01. 2015 13:52

#	Program:	corina 3.48 0006  22.01.2010

@<TRIPOS>MOLECULE
5335557
  36   38    0    0    0
SMALL
NO_CHARGES


@<TRIPOS>ATOM
   1 O1            -1.7321     2.8330    -0.8846 O.2     
   2 O2            -5.6698    -4.4657    -1.0834 O.2     
   3 O3            -3.9405    -3.2580    -1.1195 O.2     
   4 N4            -0.0434     1.3111    -0.5507 N.am    
   5 N5             0.0250    -0.0673    -0.3523 N.2     
   6 N6            -4.0013    -0.7930    -0.7429 N.pl3   
   7 N7            -3.4508     0.3707    -0.6604 N.2     
   8 N8            -1.4521    -1.9584    -0.1837 N.pl3   
   9 N9            -5.1498    -3.3660    -1.0222 N.pl3   
  10 C10            1.0618     2.1683    -0.5979 C.ar    
  11 C11           -2.1381     0.4754    -0.5824 C.2     
  12 C12           -1.3263     1.6991    -0.6965 C.2     
  13 C13           -1.1607    -0.6069    -0.3552 C.2     
  14 C14           -5.3906    -0.9124    -0.6964 C.ar    
  15 C15            2.3446     1.6594    -0.4405 C.ar    
  16 C16            0.8787     3.5291    -0.8078 C.ar    
  17 C17           -5.9875    -2.1608    -0.8297 C.ar    
  18 C18           -6.1809     0.2156    -0.5110 C.ar    
  19 C19            3.4331     2.5079    -0.4880 C.ar    
  20 C20            1.9715     4.3722    -0.8543 C.ar    
  21 C21           -7.3625    -2.2751    -0.7827 C.ar    
  22 C22            3.2470     3.8631    -0.6916 C.ar    
  23 C23           -7.5557     0.0934    -0.4651 C.ar    
  24 C24           -8.1461    -1.1494    -0.6038 C.ar    
  25 H25            2.4906     0.6013    -0.2808 H       
  26 H26           -0.1171     3.9274    -0.9350 H       
  27 H27           -3.4493    -1.5850    -0.8372 H       
  28 H28           -5.7205     1.1865    -0.4027 H       
  29 H29            4.4308     2.1129    -0.3657 H       
  30 H30            1.8299     5.4304    -1.0175 H       
  31 H31           -7.8269    -3.2447    -0.8862 H       
  32 H32            4.0999     4.5247    -0.7276 H       
  33 H33           -8.1705     0.9695    -0.3207 H       
  34 H34           -9.2216    -1.2418    -0.5678 H       
  35 H35           -0.7336    -2.5964    -0.0510 H       
  36 H36           -2.3734    -2.2615    -0.1971 H       
@<TRIPOS>BOND
   1    1   12 2
   2    2    9 2
   3    3    9 2
   4    4    5 1
   5    4   10 1
   6    4   12 am
   7    5   13 2
   8    6    7 1
   9    6   14 1
  10    6   27 1
  11    7   11 2
  12    8   13 1
  13    8   35 1
  14    8   36 1
  15    9   17 1
  16   10   15 ar
  17   10   16 ar
  18   11   12 1
  19   11   13 1
  20   14   17 ar
  21   14   18 ar
  22   15   19 ar
  23   15   25 1
  24   16   20 ar
  25   16   26 1
  26   17   21 ar
  27   18   23 ar
  28   18   28 1
  29   19   22 ar
  30   19   29 1
  31   20   22 ar
  32   20   30 1
  33   21   24 ar
  34   21   31 1
  35   22   32 1
  36   23   24 ar
  37   23   33 1
  38   24   34 1

#	End of record

#	Name: 5335165
#	Creating user name:	landrgr1
#	Creation time:	28. 01. 2015 13:52

#	Modifying user name:	landrgr1
#	Modification time:	28. 01. 2015 13:52

#	Program:	corina 3.48 0006  22.01.2010

@<TRIPOS>MOLECULE
5335165
  47   51    0    0    0
SMALL
NO_CHARGES


@<TRIPOS>ATOM
   1 S1            -0.1761     0.9180    -0.4280 S.3     
   2 S2             1.5664    -1.0837     1.1947 S.2     
   3 O3             3.8711    -1.5859    -1.1543 O.2     
   4 O4             2.8663     2.6046    -1.8469 O.2     
   5 O5             1.7813     4.3040    -3.2284 O.2     
   6 N6             5.7939     0.7381     0.4349 N.pl3   
   7 N7             5.6436    -0.5162    -0.1673 N.am    
   8 N8             2.3378     0.9345    -0.4702 N.am    
   9 N9            -0.3907     4.8599    -3.6582 N.am    
  10 C10            3.6881     0.6163    -0.2248 C.2     
  11 C11            4.5997     1.4049     0.3887 C.2     
  12 C12            4.3658    -0.6296    -0.5852 C.2     
  13 C13            0.5748     2.1568    -1.4537 C.2     
  14 C14           -0.0517     3.1124    -2.2303 C.2     
  15 C15            2.0263     1.9298    -1.2839 C.2     
  16 C16            6.6436    -1.4830    -0.3115 C.ar    
  17 C17           -1.5046     3.3293    -2.3914 C.ar    
  18 C18            4.3431     2.7870     0.9318 C.3     
  19 C19            7.0314     1.2531     1.0263 C.3     
  20 C20            1.3638     0.2318     0.1179 C.2     
  21 C21           -1.6488     4.4095    -3.2748 C.ar    
  22 C22            0.5851     4.1395    -3.0792 C.2     
  23 C23           -2.6272     2.6993    -1.8619 C.ar    
  24 C24            7.8902    -1.1261    -0.8095 C.ar    
  25 C25            6.3944    -2.8012     0.0483 C.ar    
  26 C26           -2.9265     4.8394    -3.6124 C.ar    
  27 C27           -3.8878     3.1417    -2.2094 C.ar    
  28 C28           -4.0337     4.2071    -3.0817 C.ar    
  29 C29            8.8756    -2.0834    -0.9507 C.ar    
  30 C30            7.3842    -3.7535    -0.0954 C.ar    
  31 C31            8.6223    -3.3960    -0.5969 C.ar    
  32 H32            4.6295     3.5292     0.1866 H       
  33 H33            3.2835     2.8953     1.1637 H       
  34 H34            4.9304     2.9363     1.8377 H       
  35 H35            7.6574     1.6813     0.2435 H       
  36 H36            6.7907     2.0220     1.7604 H       
  37 H37            7.5667     0.4390     1.5150 H       
  38 H38           -0.2367     5.5974    -4.2691 H       
  39 H39           -2.5125     1.8677    -1.1823 H       
  40 H40            8.0885    -0.1012    -1.0863 H       
  41 H41            5.4277    -3.0810     0.4403 H       
  42 H42           -3.0539     5.6699    -4.2909 H       
  43 H43           -4.7615     2.6555    -1.8011 H       
  44 H44           -5.0232     4.5475    -3.3492 H       
  45 H45            9.8449    -1.8066    -1.3381 H       
  46 H46            7.1911    -4.7786     0.1845 H       
  47 H47            9.3945    -4.1427    -0.7086 H       
@<TRIPOS>BOND
   1    1   13 1
   2    1   20 1
   3    2   20 2
   4    3   12 2
   5    4   15 2
   6    5   22 2
   7    6    7 1
   8    6   11 1
   9    6   19 1
  10    7   12 am
  11    7   16 1
  12    8   10 1
  13    8   15 am
  14    8   20 am
  15    9   21 1
  16    9   22 am
  17    9   38 1
  18   10   11 2
  19   10   12 1
  20   11   18 1
  21   13   14 2
  22   13   15 1
  23   14   17 1
  24   14   22 1
  25   16   24 ar
  26   16   25 ar
  27   17   21 ar
  28   17   23 ar
  29   18   32 1
  30   18   33 1
  31   18   34 1
  32   19   35 1
  33   19   36 1
  34   19   37 1
  35   21   26 ar
  36   23   27 ar
  37   23   39 1
  38   24   29 ar
  39   24   40 1
  40   25   30 ar
  41   25   41 1
  42   26   28 ar
  43   26   42 1
  44   27   28 ar
  45   27   43 1
  46   28   44 1
  47   29   31 ar
  48   29   45 1
  49   30   31 ar
  50   30   46 1
  51   31   47 1

#	End of record

#	Name: 5334434
#	Creating user name:	landrgr1
#	Creation time:	28. 01. 2015 13:52

#	Modifying user name:	landrgr1
#	Modification time:	28. 01. 2015 13:52

#	Program:	corina 3.48 0006  22.01.2010

@<TRIPOS>MOLECULE
5334434
  38   39    0    0    0
SMALL
NO_CHARGES


@<TRIPOS>ATOM
   1 S1            -0.0219     1.7624     0.0117 S.3     
   2 O2             0.8624    -4.0410    -0.0286 O.3     
   3 O3             3.5046     0.5158    -0.0290 O.2     
   4 N4             1.7112     4.3405     0.0081 N.pl3   
   5 C5             1.4307     6.7700     0.0229 C.3     
   6 C6             2.4338     5.6149     0.0073 C.3     
   7 C7             2.1855     8.1009     0.0221 C.3     
   8 C8             1.3425    -0.4110    -0.0130 C.ar    
   9 C9             0.0021    -0.0041     0.0020 C.ar    
  10 C10            1.7318     1.9813    -0.0038 C.2     
  11 C11            2.2978     0.6963    -0.0161 C.2     
  12 C12            2.4025     3.1640    -0.0046 C.2     
  13 C13            1.6119    -1.7983    -0.0237 C.ar    
  14 C14            1.1823     9.2561     0.0377 C.3     
  15 C15            0.5826    -2.7101    -0.0181 C.ar    
  16 C16           -1.0285    -0.9376     0.0068 C.ar    
  17 C17           -0.7427    -2.2848    -0.0031 C.ar    
  18 C18           -0.2502    -4.9379    -0.0219 C.3     
  19 C19            0.2580    -6.3810    -0.0355 C.3     
  20 H20            0.7958     6.7119    -0.8611 H       
  21 H21            0.8133     6.7030     0.9187 H       
  22 H22            3.0688     5.6730     0.8914 H       
  23 H23            3.0512     5.6819    -0.8885 H       
  24 H24            2.8204     8.1591     0.9062 H       
  25 H25            2.8029     8.1679    -0.8737 H       
  26 H26            0.7412     4.3330     0.0176 H       
  27 H27            3.4824     3.1724    -0.0152 H       
  28 H28            2.6346    -2.1452    -0.0357 H       
  29 H29            0.5474     9.1979    -0.8463 H       
  30 H30            0.5649     9.1891     0.9335 H       
  31 H31            1.7200    10.2042     0.0371 H       
  32 H32           -2.0560    -0.6053     0.0188 H       
  33 H33           -1.5441    -3.0088     0.0003 H       
  34 H34           -0.8461    -4.7709     0.8754 H       
  35 H35           -0.8648    -4.7608    -0.9045 H       
  36 H36            0.8539    -6.5479    -0.9327 H       
  37 H37            0.8727    -6.5580     0.8471 H       
  38 H38           -0.5906    -7.0650    -0.0304 H       
@<TRIPOS>BOND
   1    1    9 1
   2    1   10 1
   3    2   15 1
   4    2   18 1
   5    3   11 2
   6    4    6 1
   7    4   12 1
   8    4   26 1
   9    5    6 1
  10    5    7 1
  11    5   20 1
  12    5   21 1
  13    6   22 1
  14    6   23 1
  15    7   14 1
  16    7   24 1
  17    7   25 1
  18    8    9 ar
  19    8   11 1
  20    8   13 ar
  21    9   16 ar
  22   10   11 1
  23   10   12 2
  24   12   27 1
  25   13   15 ar
  26   13   28 1
  27   14   29 1
  28   14   30 1
  29   14   31 1
  30   15   17 ar
  31   16   17 ar
  32   16   32 1
  33   17   33 1
  34   18   19 1
  35   18   34 1
  36   18   35 1
  37   19   36 1
  38   19   37 1
  39   19   38 1

#	End of record

#	Name: 5333112
#	Creating user name:	landrgr1
#	Creation time:	28. 01. 2015 13:52

#	Modifying user name:	landrgr1
#	Modification time:	28. 01. 2015 13:52

#	Program:	corina 3.48 0006  22.01.2010

@<TRIPOS>MOLECULE
5333112
  33   34    0    0    0
SMALL
NO_CHARGES


@<TRIPOS>ATOM
   1 Cl1            4.9785     5.6557    -0.0146 Cl      
   2 O2             2.2022     1.5564    -0.0106 O.2     
   3 N3            -0.0178     1.4608     0.0101 N.am    
   4 C4             0.0021    -0.0041     0.0020 C.3     
   5 C5            -1.4117    -0.5257     0.0127 C.ar    
   6 C6            -2.0716    -0.7585    -1.1795 C.ar    
   7 C7            -2.0468    -0.7767     1.2146 C.ar    
   8 C8             2.2589     5.7755     0.0115 C.ar    
   9 C9             1.1401     2.1505     0.0027 C.2     
  10 C10           -3.3685    -1.2369    -1.1696 C.ar    
  11 C11           -3.3436    -1.2552     1.2245 C.ar    
  12 C12            2.2788     4.3042     0.0034 C.2     
  13 C13           -4.0053    -1.4830     0.0323 C.ar    
  14 C14            1.1203     3.6141     0.0108 C.2     
  15 C15            3.4593     6.4957     0.0039 C.ar    
  16 C16            1.0407     6.4620     0.0210 C.ar    
  17 C17            3.4312     7.8757     0.0116 C.ar    
  18 C18            1.0302     7.8407     0.0286 C.ar    
  19 C19            2.2210     8.5462     0.0273 C.ar    
  20 H20            0.5123    -0.3556    -0.8948 H       
  21 H21            0.5293    -0.3651     0.8851 H       
  22 H22           -0.8643     1.9343     0.0167 H       
  23 H23           -1.5740    -0.5663    -2.1185 H       
  24 H24           -1.5295    -0.5993     2.1460 H       
  25 H25           -3.8843    -1.4181    -2.1011 H       
  26 H26           -3.8396    -1.4516     2.1635 H       
  27 H27            3.2213     3.7770    -0.0084 H       
  28 H28            0.1778     4.1413     0.0226 H       
  29 H29           -5.0187    -1.8564     0.0400 H       
  30 H30            0.1103     5.9135     0.0221 H       
  31 H31            4.3561     8.4334     0.0058 H       
  32 H32            0.0898     8.3719     0.0360 H       
  33 H33            2.2055     9.6261     0.0340 H       
@<TRIPOS>BOND
   1    1   15 1
   2    2    9 2
   3    3    4 1
   4    3    9 am
   5    3   22 1
   6    4    5 1
   7    4   20 1
   8    4   21 1
   9    5    6 ar
  10    5    7 ar
  11    6   10 ar
  12    6   23 1
  13    7   11 ar
  14    7   24 1
  15    8   12 1
  16    8   15 ar
  17    8   16 ar
  18    9   14 1
  19   10   13 ar
  20   10   25 1
  21   11   13 ar
  22   11   26 1
  23   12   14 2
  24   12   27 1
  25   13   29 1
  26   14   28 1
  27   15   17 ar
  28   16   18 ar
  29   16   30 1
  30   17   19 ar
  31   17   31 1
  32   18   19 ar
  33   18   32 1
  34   19   33 1

#	End of record

#	Name: 5332683
#	Creating user name:	landrgr1
#	Creation time:	28. 01. 2015 13:52

#	Modifying user name:	landrgr1
#	Modification time:	28. 01. 2015 13:52

#	Program:	corina 3.48 0006  22.01.2010

@<TRIPOS>MOLECULE
5332683
  30   31    0    0    0
SMALL
NO_CHARGES


@<TRIPOS>ATOM
   1 Cl1            3.9413     3.0524    -0.0115 Cl      
   2 O2            -0.0144     1.2138     0.0087 O.3     
   3 O3             2.2044     1.1933    -0.0126 O.2     
   4 N4             0.0021    -0.0041     0.0020 N.2     
   5 N5            -2.3232     0.0050     0.0243 N.pl3   
   6 C6            -1.0961    -2.1504     0.0010 C.ar    
   7 C7             1.2337     3.3165     0.0081 C.ar    
   8 C8            -2.2928    -2.8670     0.0086 C.ar    
   9 C9             0.1194    -2.8341    -0.0201 C.ar    
  10 C10           -1.1162    -0.6702     0.0091 C.2     
  11 C11            2.4686     3.9715    -0.0002 C.ar    
  12 C12            0.0545     4.0644     0.0176 C.ar    
  13 C13           -2.2676    -4.2465    -0.0048 C.ar    
  14 C14            0.1315    -4.2138    -0.0333 C.ar    
  15 C15            2.5137     5.3518     0.0011 C.ar    
  16 C16            0.1152     5.4423     0.0188 C.ar    
  17 C17           -1.0587    -4.9189    -0.0252 C.ar    
  18 C18            1.3408     6.0848     0.0110 C.ar    
  19 C19            1.1764     1.8412     0.0007 C.2     
  20 H20           -3.2371    -2.3431     0.0252 H       
  21 H21            1.0492    -2.2847    -0.0264 H       
  22 H22           -0.9030     3.5648     0.0237 H       
  23 H23           -3.1934    -4.8025     0.0011 H       
  24 H24            1.0720    -4.7443    -0.0499 H       
  25 H25            3.4667     5.8598    -0.0053 H       
  26 H26           -0.7964     6.0214     0.0261 H       
  27 H27           -1.0441    -5.9988    -0.0352 H       
  28 H28            1.3817     7.1641     0.0123 H       
  29 H29           -2.3364     0.9749     0.0296 H       
  30 H30           -3.1566    -0.4914     0.0296 H       
@<TRIPOS>BOND
   1    1   11 1
   2    2    4 1
   3    2   19 1
   4    3   19 2
   5    4   10 2
   6    5   10 1
   7    5   29 1
   8    5   30 1
   9    6    8 ar
  10    6    9 ar
  11    6   10 1
  12    7   11 ar
  13    7   12 ar
  14    7   19 1
  15    8   13 ar
  16    8   20 1
  17    9   14 ar
  18    9   21 1
  19   11   15 ar
  20   12   16 ar
  21   12   22 1
  22   13   17 ar
  23   13   23 1
  24   14   17 ar
  25   14   24 1
  26   15   18 ar
  27   15   25 1
  28   16   18 ar
  29   16   26 1
  30   17   27 1
  31   18   28 1

#	End of record

#	Name: 5331896
#	Creating user name:	landrgr1
#	Creation time:	28. 01. 2015 13:52

#	Modifying user name:	landrgr1
#	Modification time:	28. 01. 2015 13:52

#	Program:	corina 3.48 0006  22.01.2010

@<TRIPOS>MOLECULE
5331896
  32   33    0    0    0
SMALL
NO_CHARGES


@<TRIPOS>ATOM
   1 Br1            2.2684    10.3064     0.0376 Br      
   2 O2             3.4147     3.5723    -0.0114 O.2     
   3 O3            -0.9867    -4.8742    -0.0137 O.2     
   4 O4             1.1226    -4.8455    -0.0340 O.2     
   5 N5            -0.0169     1.3931     0.0097 N.pl3   
   6 N6             0.0597    -4.2509    -0.0207 N.pl3   
   7 C7             0.0021    -0.0041     0.0020 C.ar    
   8 C8             2.3316     5.6465     0.0101 C.ar    
   9 C9            -1.1905    -0.7166     0.0096 C.ar    
  10 C10            1.2135    -0.6838    -0.0189 C.ar    
  11 C11            0.0396    -2.7708    -0.0131 C.ar    
  12 C12           -1.1682    -2.0974     0.0020 C.ar    
  13 C13            1.2286    -2.0647    -0.0264 C.ar    
  14 C14            2.3516     4.1670     0.0020 C.2     
  15 C15            1.1567     2.0921     0.0023 C.2     
  16 C16            3.5291     6.3635     0.0025 C.ar    
  17 C17            1.1150     6.3306     0.0196 C.ar    
  18 C18            1.1383     3.4443     0.0097 C.2     
  19 C19            3.5040     7.7424     0.0102 C.ar    
  20 C20            1.1026     7.7097     0.0272 C.ar    
  21 C21            2.2940     8.4156     0.0259 C.ar    
  22 H22           -2.1341    -0.1912     0.0217 H       
  23 H23            2.1424    -0.1330    -0.0297 H       
  24 H24           -0.8634     1.8666     0.0163 H       
  25 H25           -2.0949    -2.6519     0.0082 H       
  26 H26            2.1700    -2.5937    -0.0431 H       
  27 H27            2.0992     1.5649    -0.0096 H       
  28 H28            4.4734     5.8395    -0.0090 H       
  29 H29            0.1852     5.7812     0.0207 H       
  30 H30            0.1958     3.9715     0.0215 H       
  31 H31            4.4300     8.2982     0.0044 H       
  32 H32            0.1619     8.2402     0.0343 H       
@<TRIPOS>BOND
   1    1   21 1
   2    2   14 2
   3    3    6 2
   4    4    6 2
   5    5    7 1
   6    5   15 1
   7    5   24 1
   8    6   11 1
   9    7    9 ar
  10    7   10 ar
  11    8   14 1
  12    8   16 ar
  13    8   17 ar
  14    9   12 ar
  15    9   22 1
  16   10   13 ar
  17   10   23 1
  18   11   12 ar
  19   11   13 ar
  20   12   25 1
  21   13   26 1
  22   14   18 1
  23   15   18 2
  24   15   27 1
  25   16   19 ar
  26   16   28 1
  27   17   20 ar
  28   17   29 1
  29   18   30 1
  30   19   21 ar
  31   19   31 1
  32   20   21 ar
  33   20   32 1

#	End of record

#	Name: 5322730
#	Creating user name:	landrgr1
#	Creation time:	28. 01. 2015 13:52

#	Modifying user name:	landrgr1
#	Modification time:	28. 01. 2015 13:52

#	Program:	corina 3.48 0006  22.01.2010

@<TRIPOS>MOLECULE
5322730
  59   60    0    0    0
SMALL
NO_CHARGES


@<TRIPOS>ATOM
   1 O1            -7.5399     0.4428    -0.6133 O.2     
   2 O2            -3.3297    -1.6726    -0.6039 O.2     
   3 O3            -1.0164     2.0994    -2.1893 O.3     
   4 O4             2.3806    -1.2163    -2.4798 O.3     
   5 N5            -5.9168    -1.0602    -0.4444 N.am    
   6 N6            -2.5737     0.4132    -0.6275 N.am    
   7 C7            -8.1569    -1.7484    -1.2361 C.3     
   8 C8            -9.5138    -1.0920    -1.4987 C.3     
   9 C9            -7.6297    -2.3659    -2.5328 C.3     
  10 C10          -10.5022    -2.1470    -1.9999 C.3     
  11 C11           -8.6180    -3.4209    -3.0340 C.3     
  12 C12           -9.9749    -2.7646    -3.2966 C.3     
  13 C13           -7.1835    -0.7093    -0.7424 C.2     
  14 C14           -4.9415    -0.0338    -0.0684 C.3     
  15 C15           -5.0012     0.1972     1.4429 C.3     
  16 C16           -4.0204     1.3065     1.8284 C.3     
  17 C17           -3.5578    -0.4909    -0.4524 C.2     
  18 C18           -4.4869     2.6324     1.2240 C.3     
  19 C19           -3.9656     1.4319     3.3523 C.3     
  20 C20           -1.3178     0.0009    -1.0978 C.ar    
  21 C21           -0.5498     0.8603    -1.8799 C.ar    
  22 C22           -0.8373    -1.2607    -0.7797 C.ar    
  23 C23            0.6899     0.4504    -2.3423 C.ar    
  24 C24            0.3997    -1.6666    -1.2425 C.ar    
  25 C25            1.1638    -0.8139    -2.0260 C.ar    
  26 C26           -0.1751     2.9268    -2.9953 C.3     
  27 C27            2.8064    -2.5310    -2.1161 C.3     
  28 H28           -8.2700    -2.5275    -0.4823 H       
  29 H29           -9.8895    -0.6520    -0.5749 H       
  30 H30           -9.4008    -0.3129    -2.2525 H       
  31 H31           -7.5166    -1.5868    -3.2866 H       
  32 H32           -6.6630    -2.8335    -2.3457 H       
  33 H33          -10.6153    -2.9261    -1.2461 H       
  34 H34          -11.4689    -1.6794    -2.1870 H       
  35 H35           -8.2423    -3.8609    -3.9578 H       
  36 H36           -8.7311    -4.2000    -2.2802 H       
  37 H37          -10.6790    -3.5161    -3.6537 H       
  38 H38           -9.8618    -1.9854    -4.0504 H       
  39 H39           -5.1741     0.8960    -0.5875 H       
  40 H40           -5.6509    -1.9925    -0.4788 H       
  41 H41           -6.0119     0.4914     1.7258 H       
  42 H42           -4.7318    -0.7226     1.9620 H       
  43 H43           -3.0285     1.0628     1.4480 H       
  44 H44           -5.4485     2.9101     1.6556 H       
  45 H45           -3.7533     3.4088     1.4413 H       
  46 H46           -4.5911     2.5229     0.1446 H       
  47 H47           -3.6333     0.4873     3.7828 H       
  48 H48           -3.2669     2.2221     3.6269 H       
  49 H49           -4.9576     1.6756     3.7327 H       
  50 H50           -2.7338     1.3489    -0.4283 H       
  51 H51           -1.4304    -1.9262    -0.1700 H       
  52 H52            1.2870     1.1150    -2.9492 H       
  53 H53            0.7726    -2.6492    -0.9936 H       
  54 H54           -0.6652     3.8851    -3.1673 H       
  55 H55            0.7726     3.0904    -2.4822 H       
  56 H56            0.0091     2.4361    -3.9510 H       
  57 H57            2.8586    -2.6085    -1.0301 H       
  58 H58            2.0946    -3.2623    -2.4988 H       
  59 H59            3.7909    -2.7248    -2.5419 H       
@<TRIPOS>BOND
   1    1   13 2
   2    2   17 2
   3    3   21 1
   4    3   26 1
   5    4   25 1
   6    4   27 1
   7    5   13 am
   8    5   14 1
   9    5   40 1
  10    6   17 am
  11    6   20 1
  12    6   50 1
  13    7    8 1
  14    7    9 1
  15    7   13 1
  16    7   28 1
  17    8   10 1
  18    8   29 1
  19    8   30 1
  20    9   11 1
  21    9   31 1
  22    9   32 1
  23   10   12 1
  24   10   33 1
  25   10   34 1
  26   11   12 1
  27   11   35 1
  28   11   36 1
  29   12   37 1
  30   12   38 1
  31   14   15 1
  32   14   17 1
  33   14   39 1
  34   15   16 1
  35   15   41 1
  36   15   42 1
  37   16   18 1
  38   16   19 1
  39   16   43 1
  40   18   44 1
  41   18   45 1
  42   18   46 1
  43   19   47 1
  44   19   48 1
  45   19   49 1
  46   20   21 ar
  47   20   22 ar
  48   21   23 ar
  49   22   24 ar
  50   22   51 1
  51   23   25 ar
  52   23   52 1
  53   24   25 ar
  54   24   53 1
  55   26   54 1
  56   26   55 1
  57   26   56 1
  58   27   57 1
  59   27   58 1
  60   27   59 1

#	End of record

#	Name: 5322459
#	Creating user name:	landrgr1
#	Creation time:	28. 01. 2015 13:52

#	Modifying user name:	landrgr1
#	Modification time:	28. 01. 2015 13:52

#	Program:	corina 3.48 0006  22.01.2010

@<TRIPOS>MOLECULE
5322459
  53   56    0    0    0
SMALL
NO_CHARGES


@<TRIPOS>ATOM
   1 O1            -2.5390    -3.8112     0.8755 O.2     
   2 O2            -0.0161     1.3381     0.0094 O.3     
   3 O3             1.0565    -0.5939    -0.0112 O.2     
   4 N4            -1.1520    -2.8307     2.3026 N.am    
   5 N5             0.4166    -3.1748     4.5799 N.3     
   6 C6            -1.7339    -2.6942    -1.4403 C.3     
   7 C7            -2.1342    -0.4490    -1.2645 C.3     
   8 C8            -1.0217    -2.2951    -0.1087 C.3     
   9 C9            -1.2926    -0.7753     0.0102 C.3     
  10 C10           -2.9967    -1.7591    -1.3782 C.3     
  11 C11           -0.9271    -1.9716    -2.5260 C.2     
  12 C12           -1.1578    -0.6779    -2.4248 C.2     
  13 C13           -1.6261    -3.0338     1.0574 C.2     
  14 C14            0.0021    -0.0041     0.0020 C.2     
  15 C15           -1.7274    -3.5413     3.4547 C.3     
  16 C16           -0.0416    -1.8971     2.5447 C.3     
  17 C17           -0.5869    -4.1935     4.2434 C.3     
  18 C18            1.0288    -2.6176     3.3712 C.3     
  19 C19            1.4397    -3.7213     5.4813 C.3     
  20 C20            2.5743    -2.7377     5.6085 C.2     
  21 C21            2.9537    -2.3146     6.8062 C.2     
  22 C22            4.0666    -1.3498     6.9309 C.ar    
  23 C23            4.4683    -0.9026     8.1902 C.ar    
  24 C24            4.7236    -0.8868     5.7904 C.ar    
  25 C25            5.5081    -0.0023     8.2998 C.ar    
  26 C26            5.7620     0.0133     5.9137 C.ar    
  27 C27            6.1520     0.4569     7.1647 C.ar    
  28 H28           -1.9202    -3.7580    -1.5881 H       
  29 H29            0.0489    -2.4895    -0.1736 H       
  30 H30           -2.6785     0.4953    -1.2551 H       
  31 H31           -1.8639    -0.5574     0.9126 H       
  32 H32           -3.5865    -1.7925    -2.2942 H       
  33 H33           -3.6047    -1.9369    -0.4912 H       
  34 H34           -0.2797    -2.4429    -3.2507 H       
  35 H35           -0.7314     0.0906    -3.0524 H       
  36 H36           -2.2570    -2.8346     4.0935 H       
  37 H37           -2.4164    -4.3097     3.1041 H       
  38 H38            0.3834    -1.5790     1.5927 H       
  39 H39           -0.4061    -1.0293     3.0944 H       
  40 H40           -0.1239    -4.9752     3.6412 H       
  41 H41           -0.9855    -4.6281     5.1601 H       
  42 H42            1.8054    -1.9061     3.6517 H       
  43 H43            1.4681    -3.4225     2.7818 H       
  44 H44            0.8394     1.7888     0.0037 H       
  45 H45            1.0013    -3.8992     6.4633 H       
  46 H46            1.8167    -4.6604     5.0762 H       
  47 H47            3.0784    -2.3774     4.7239 H       
  48 H48            2.4497    -2.6749     7.6908 H       
  49 H49            3.9662    -1.2601     9.0770 H       
  50 H50            4.4203    -1.2326     4.8132 H       
  51 H51            5.8198     0.3449     9.2738 H       
  52 H52            6.2716     0.3722     5.0317 H       
  53 H53            6.9651     1.1618     7.2558 H       
@<TRIPOS>BOND
   1    1   13 2
   2    2   14 1
   3    2   44 1
   4    3   14 2
   5    4   13 am
   6    4   15 1
   7    4   16 1
   8    5   17 1
   9    5   18 1
  10    5   19 1
  11    6    8 1
  12    6   10 1
  13    6   11 1
  14    6   28 1
  15    7    9 1
  16    7   10 1
  17    7   12 1
  18    7   30 1
  19    8    9 1
  20    8   13 1
  21    8   29 1
  22    9   14 1
  23    9   31 1
  24   10   32 1
  25   10   33 1
  26   11   12 2
  27   11   34 1
  28   12   35 1
  29   15   17 1
  30   15   36 1
  31   15   37 1
  32   16   18 1
  33   16   38 1
  34   16   39 1
  35   17   40 1
  36   17   41 1
  37   18   42 1
  38   18   43 1
  39   19   20 1
  40   19   45 1
  41   19   46 1
  42   20   21 2
  43   20   47 1
  44   21   22 1
  45   21   48 1
  46   22   23 ar
  47   22   24 ar
  48   23   25 ar
  49   23   49 1
  50   24   26 ar
  51   24   50 1
  52   25   27 ar
  53   25   51 1
  54   26   27 ar
  55   26   52 1
  56   27   53 1

#	End of record

#	Name: 5310821
#	Creating user name:	landrgr1
#	Creation time:	28. 01. 2015 13:52

#	Modifying user name:	landrgr1
#	Modification time:	28. 01. 2015 13:52

#	Program:	corina 3.48 0006  22.01.2010

@<TRIPOS>MOLECULE
5310821
  29   30    0    0    0
SMALL
NO_CHARGES


@<TRIPOS>ATOM
   1 O1            -0.9925     3.5065    -0.8952 O.2     
   2 N2             0.0073     1.3822    -0.2978 N.pl3   
   3 N3            -1.0750    -0.6767    -0.6262 N.ar    
   4 C4            -0.1042     5.5969    -0.3315 C.ar    
   5 C5            -0.0353     4.1245    -0.4646 C.2     
   6 C6            -1.2644     6.2802    -0.6983 C.ar    
   7 C7             0.9888     6.3073     0.1668 C.ar    
   8 C8             0.0485    -0.0026    -0.4345 C.ar    
   9 C9             1.1406     3.4359    -0.0924 C.2     
  10 C10           -1.3222     7.6527    -0.5718 C.ar    
  11 C11            0.9182     7.6797     0.2884 C.ar    
  12 C12            1.1634     2.0843    -0.0997 C.2     
  13 C13           -0.2329     8.3519    -0.0829 C.ar    
  14 C14            1.2692    -0.6653    -0.3689 C.ar    
  15 C15            1.2958    -2.0420    -0.5063 C.ar    
  16 C16            0.0960    -2.7111    -0.7053 C.ar    
  17 C17           -1.0801    -1.9889    -0.7600 C.ar    
  18 H18           -2.1151     5.7356    -1.0807 H       
  19 H19            1.8878     5.7839     0.4569 H       
  20 H20            2.0215     3.9893     0.1980 H       
  21 H21           -0.8414     1.8494    -0.3472 H       
  22 H22           -2.2195     8.1827    -0.8553 H       
  23 H23            1.7633     8.2307     0.6739 H       
  24 H24            2.0950     1.5591     0.0510 H       
  25 H25           -0.2830     9.4263     0.0139 H       
  26 H26            2.1842    -0.1130    -0.2131 H       
  27 H27            2.2290    -2.5837    -0.4600 H       
  28 H28            0.0823    -3.7853    -0.8163 H       
  29 H29           -2.0159    -2.5052    -0.9148 H       
@<TRIPOS>BOND
   1    1    5 2
   2    2    8 1
   3    2   12 1
   4    2   21 1
   5    3    8 ar
   6    3   17 ar
   7    4    5 1
   8    4    6 ar
   9    4    7 ar
  10    5    9 1
  11    6   10 ar
  12    6   18 1
  13    7   11 ar
  14    7   19 1
  15    8   14 ar
  16    9   12 2
  17    9   20 1
  18   10   13 ar
  19   10   22 1
  20   11   13 ar
  21   11   23 1
  22   12   24 1
  23   13   25 1
  24   14   15 ar
  25   14   26 1
  26   15   16 ar
  27   15   27 1
  28   16   17 ar
  29   16   28 1
  30   17   29 1

#	End of record

#	Name: 5310759
#	Creating user name:	landrgr1
#	Creation time:	28. 01. 2015 13:52

#	Modifying user name:	landrgr1
#	Modification time:	28. 01. 2015 13:52

#	Program:	corina 3.48 0006  22.01.2010

@<TRIPOS>MOLECULE
5310759
  48   50    0    0    0
SMALL
NO_CHARGES


@<TRIPOS>ATOM
   1 O1            -0.0162     1.3461     0.0094 O.3     
   2 O2            -2.3020    -2.8182     0.0121 O.3     
   3 O3             1.0371     3.2870     0.0098 O.2     
   4 N4            -2.9503     0.2322    -1.3528 N.3     
   5 C5            -2.5063    -0.0085     0.0266 C.3     
   6 C6            -4.3377     0.7140    -1.3829 C.3     
   7 C7            -1.1818    -0.7271     0.0099 C.ar    
   8 C8            -4.8460     0.7154    -2.8260 C.3     
   9 C9             0.0021    -0.0041     0.0020 C.ar    
  10 C10            1.2284    -0.6902    -0.0134 C.ar    
  11 C11           -6.2910     1.2173    -2.8573 C.3     
  12 C12           -1.1427    -2.1117     0.0034 C.ar    
  13 C13           -2.0521     1.1706    -2.0388 C.3     
  14 C14            2.4786     0.0875    -0.0216 C.2     
  15 C15            1.2507    -2.0871    -0.0203 C.ar    
  16 C16            0.0769    -2.7848    -0.0119 C.ar    
  17 C17            3.7962    -0.5852    -0.0384 C.ar    
  18 C18           -6.7993     1.2186    -4.3004 C.3     
  19 C19            2.3818     1.4662    -0.0137 C.2     
  20 C20            1.1135     2.0710     0.0025 C.2     
  21 C21            4.6632    -0.4555     1.0477 C.ar    
  22 C22            4.1751    -1.3570    -1.1378 C.ar    
  23 C23            5.8901    -1.0857     1.0260 C.ar    
  24 C24            5.4049    -1.9821    -1.1469 C.ar    
  25 C25            6.2621    -1.8448    -0.0694 C.ar    
  26 H26           -2.3962     0.9444     0.5443 H       
  27 H27           -3.2451    -0.6201     0.5446 H       
  28 H28           -4.9634     0.0578    -0.7779 H       
  29 H29           -4.3793     1.7268    -0.9820 H       
  30 H30           -4.2203     1.3716    -3.4310 H       
  31 H31           -4.8043    -0.2974    -3.2268 H       
  32 H32           -6.9167     0.5610    -2.2523 H       
  33 H33           -6.3326     2.2300    -2.4564 H       
  34 H34           -1.0441     0.7567    -2.0633 H       
  35 H35           -2.4038     1.3310    -3.0580 H       
  36 H36           -2.0420     2.1204    -1.5042 H       
  37 H37            2.1935    -2.6137    -0.0325 H       
  38 H38            0.0941    -3.8647    -0.0172 H       
  39 H39           -7.8287     1.5762    -4.3227 H       
  40 H40           -6.1735     1.8748    -4.9053 H       
  41 H41           -6.7576     0.2059    -4.7012 H       
  42 H42            3.2743     2.0742    -0.0196 H       
  43 H43            4.3743     0.1373     1.9030 H       
  44 H44            3.5069    -1.4650    -1.9793 H       
  45 H45           -2.6467    -3.0190    -0.8688 H       
  46 H46            6.5620    -0.9862     1.8657 H       
  47 H47            5.6994    -2.5796    -1.9970 H       
  48 H48            7.2239    -2.3359    -0.0816 H       
@<TRIPOS>BOND
   1    1    9 1
   2    1   20 1
   3    2   12 1
   4    2   45 1
   5    3   20 2
   6    4    5 1
   7    4    6 1
   8    4   13 1
   9    5    7 1
  10    5   26 1
  11    5   27 1
  12    6    8 1
  13    6   28 1
  14    6   29 1
  15    7    9 ar
  16    7   12 ar
  17    8   11 1
  18    8   30 1
  19    8   31 1
  20    9   10 ar
  21   10   14 1
  22   10   15 ar
  23   11   18 1
  24   11   32 1
  25   11   33 1
  26   12   16 ar
  27   13   34 1
  28   13   35 1
  29   13   36 1
  30   14   17 1
  31   14   19 2
  32   15   16 ar
  33   15   37 1
  34   16   38 1
  35   17   21 ar
  36   17   22 ar
  37   18   39 1
  38   18   40 1
  39   18   41 1
  40   19   20 1
  41   19   42 1
  42   21   23 ar
  43   21   43 1
  44   22   24 ar
  45   22   44 1
  46   23   25 ar
  47   23   46 1
  48   24   25 ar
  49   24   47 1
  50   25   48 1

#	End of record

#	Name: 5310738
#	Creating user name:	landrgr1
#	Creation time:	28. 01. 2015 13:52

#	Modifying user name:	landrgr1
#	Modification time:	28. 01. 2015 13:52

#	Program:	corina 3.48 0006  22.01.2010

@<TRIPOS>MOLECULE
5310738
  36   38    0    0    0
SMALL
NO_CHARGES


@<TRIPOS>ATOM
   1 O1            -0.2433    -2.9941     0.2980 O.2     
   2 N2            -0.0165     1.3663     0.0096 N.pl3   
   3 N3            -1.7469    -2.4803     1.9379 N.am    
   4 C4             0.0021    -0.0041     0.0020 C.2     
   5 C5             0.9174    -0.6857    -0.9925 C.3     
   6 C6             2.2978    -0.0238    -0.9128 C.3     
   7 C7            -0.7753    -0.7272     0.8595 C.2     
   8 C8             2.1461     1.4860    -1.1175 C.3     
   9 C9             1.2762     2.0677     0.0010 C.3     
  10 C10           -1.7139    -0.2074     1.8817 C.ar    
  11 C11           -2.2760    -1.3283     2.5065 C.ar    
  12 C12           -0.8633    -2.1876     0.9687 C.2     
  13 C13           -2.1025    -3.8412     2.3473 C.3     
  14 C14           -2.0826     1.0740     2.2732 C.ar    
  15 C15           -3.2060    -1.1401     3.5230 C.ar    
  16 C16           -3.0078     1.2415     3.2844 C.ar    
  17 C17           -3.5652     0.1365     3.9052 C.ar    
  18 C18           -3.2947    -4.3273     1.5207 C.3     
  19 H19            1.0032    -1.7442    -0.7466 H       
  20 H20            0.5142    -0.5737    -1.9989 H       
  21 H21            2.7378    -0.2160     0.0658 H       
  22 H22            2.9433    -0.4334    -1.6897 H       
  23 H23            3.1292     1.9563    -1.0952 H       
  24 H24            1.6740     1.6763    -2.0813 H       
  25 H25            1.1139     3.1306    -0.1778 H       
  26 H26            1.7738     1.9284     0.9607 H       
  27 H27           -0.8534     1.8568     0.0162 H       
  28 H28           -1.2526    -4.5037     2.1835 H       
  29 H29           -2.3677    -3.8450     3.4045 H       
  30 H30           -1.6466     1.9354     1.7891 H       
  31 H31           -3.6484    -1.9943     4.0139 H       
  32 H32           -3.2970     2.2357     3.5915 H       
  33 H33           -4.2882     0.2749     4.6954 H       
  34 H34           -3.5593    -5.3399     1.8253 H       
  35 H35           -4.1447    -3.6648     1.6845 H       
  36 H36           -3.0296    -4.3235     0.4635 H       
@<TRIPOS>BOND
   1    1   12 2
   2    2    4 1
   3    2    9 1
   4    2   27 1
   5    3   11 1
   6    3   12 am
   7    3   13 1
   8    4    5 1
   9    4    7 2
  10    5    6 1
  11    5   19 1
  12    5   20 1
  13    6    8 1
  14    6   21 1
  15    6   22 1
  16    7   10 1
  17    7   12 1
  18    8    9 1
  19    8   23 1
  20    8   24 1
  21    9   25 1
  22    9   26 1
  23   10   11 ar
  24   10   14 ar
  25   11   15 ar
  26   13   18 1
  27   13   28 1
  28   13   29 1
  29   14   16 ar
  30   14   30 1
  31   15   17 ar
  32   15   31 1
  33   16   17 ar
  34   16   32 1
  35   17   33 1
  36   18   34 1
  37   18   35 1
  38   18   36 1

#	End of record

#	Name: 5310733
#	Creating user name:	landrgr1
#	Creation time:	28. 01. 2015 13:52

#	Modifying user name:	landrgr1
#	Modification time:	28. 01. 2015 13:52

#	Program:	corina 3.48 0006  22.01.2010

@<TRIPOS>MOLECULE
5310733
  41   43    0    0    0
SMALL
NO_CHARGES


@<TRIPOS>ATOM
   1 O1             1.9110     1.0720     0.3961 O.2     
   2 O2            -2.4468     1.8527     0.3796 O.2     
   3 O3             0.1834     5.3820    -0.0967 O.2     
   4 N4            -0.2914     1.4396     0.3959 N.am    
   5 N5            -1.1652     3.6185     0.1425 N.am    
   6 N6             3.5741     2.9655    -0.0120 N.pl3   
   7 N7             5.7617     1.2243    -0.1397 N.pl3   
   8 C8            -0.5533     0.0735     0.5674 C.ar    
   9 C9             1.2369     3.3015     0.1376 C.2     
  10 C10            0.9878     1.8607     0.3184 C.2     
  11 C11           -0.2276    -0.8287    -0.4366 C.ar    
  12 C12           -1.3179     2.2970     0.3072 C.2     
  13 C13           -0.4869    -2.1742    -0.2647 C.ar    
  14 C14           -1.1335    -0.3811     1.7437 C.ar    
  15 C15            0.0576     4.1811     0.0532 C.2     
  16 C16            2.5220     3.8065     0.0499 C.2     
  17 C17           -1.0707    -2.6233     0.9058 C.ar    
  18 C18           -1.3905    -1.7282     1.9098 C.ar    
  19 C19            4.8780     3.4726     0.0196 C.ar    
  20 C20           -0.1337    -3.1540    -1.3539 C.3     
  21 C21            5.9686     2.6040    -0.0443 C.ar    
  22 C22            5.0906     4.8402     0.1088 C.ar    
  23 C23            7.2580     3.1135    -0.0124 C.ar    
  24 C24            6.3796     5.3388     0.1399 C.ar    
  25 C25            7.4600     4.4779     0.0824 C.ar    
  26 H26            0.2277    -0.4785    -1.3512 H       
  27 H27           -1.3835     0.3176     2.5283 H       
  28 H28           -1.9519     4.1831     0.0858 H       
  29 H29            2.6824     4.8743     0.0311 H       
  30 H30           -1.2732    -3.6759     1.0376 H       
  31 H31           -1.8416    -2.0825     2.8249 H       
  32 H32            3.4272     2.0090    -0.0784 H       
  33 H33            0.8827    -3.5166    -1.2009 H       
  34 H34           -0.8274    -3.9943    -1.3256 H       
  35 H35           -0.2011    -2.6597    -2.3231 H       
  36 H36            4.2491     5.5156     0.1537 H       
  37 H37            8.1044     2.4444    -0.0613 H       
  38 H38            6.5432     6.4040     0.2094 H       
  39 H39            8.4649     4.8729     0.1070 H       
  40 H40            4.8592     0.8695    -0.1615 H       
  41 H41            6.5208     0.6220    -0.1840 H       
@<TRIPOS>BOND
   1    1   10 2
   2    2   12 2
   3    3   15 2
   4    4    8 1
   5    4   10 am
   6    4   12 am
   7    5   12 am
   8    5   15 am
   9    5   28 1
  10    6   16 1
  11    6   19 1
  12    6   32 1
  13    7   21 1
  14    7   40 1
  15    7   41 1
  16    8   11 ar
  17    8   14 ar
  18    9   10 1
  19    9   15 1
  20    9   16 2
  21   11   13 ar
  22   11   26 1
  23   13   17 ar
  24   13   20 1
  25   14   18 ar
  26   14   27 1
  27   16   29 1
  28   17   18 ar
  29   17   30 1
  30   18   31 1
  31   19   21 ar
  32   19   22 ar
  33   20   33 1
  34   20   34 1
  35   20   35 1
  36   21   23 ar
  37   22   24 ar
  38   22   36 1
  39   23   25 ar
  40   23   37 1
  41   24   25 ar
  42   24   38 1
  43   25   39 1

#	End of record

#	Name: 5310426
#	Creating user name:	landrgr1
#	Creation time:	28. 01. 2015 13:52

#	Modifying user name:	landrgr1
#	Modification time:	28. 01. 2015 13:52

#	Program:	corina 3.48 0006  22.01.2010

@<TRIPOS>MOLECULE
5310426
  38   40    0    0    0
SMALL
NO_CHARGES


@<TRIPOS>ATOM
   1 O1            -0.0952     1.6400     0.1391 O.3     
   2 O2            -2.2916     0.8908    -3.7765 O.2     
   3 O3            -4.8093     1.2386    -0.6808 O.2     
   4 N4            -3.6121     2.0412    -5.1616 N.am    
   5 N5            -2.7856     0.5616    -1.3004 N.am    
   6 N6            -5.6347     2.9216    -4.3416 N.2     
   7 C7            -2.4702     0.1121     0.0578 C.3     
   8 C8            -1.1002    -0.5156     0.0738 C.ar    
   9 C9            -4.2386     1.7079    -2.8886 C.2     
  10 C10           -4.7708     2.7409    -5.3443 C.2     
  11 C11           -3.3224     1.5169    -3.9510 C.2     
  12 C12           -3.9673     1.1573    -1.5557 C.2     
  13 C13            0.0309     0.2871     0.1142 C.ar    
  14 C14           -0.9695    -1.8904     0.0539 C.ar    
  15 C15           -5.4100     2.4359    -3.1385 C.2     
  16 C16           -2.7383     1.8702    -6.1911 C.2     
  17 C17           -5.0626     3.2820    -6.6074 C.2     
  18 C18            1.2905    -0.2936     0.1288 C.ar    
  19 C19            0.2873    -2.4670     0.0684 C.ar    
  20 C20           -2.9989     2.3887    -7.4136 C.2     
  21 C21           -4.1841     3.1009    -7.6357 C.2     
  22 C22            1.4159    -1.6694     0.1030 C.ar    
  23 C23            1.1121     2.4034     0.1804 C.3     
  24 H24           -2.4869     0.9653     0.7359 H       
  25 H25           -3.2097    -0.6216     0.3787 H       
  26 H26           -2.1440     0.4304    -2.0159 H       
  27 H27           -1.8497    -2.5157     0.0272 H       
  28 H28           -6.1264     2.5976    -2.3467 H       
  29 H29           -1.8262     1.3146    -6.0303 H       
  30 H30           -5.9757     3.8371    -6.7635 H       
  31 H31            2.1724     0.3290     0.1599 H       
  32 H32            0.3874    -3.5422     0.0531 H       
  33 H33           -2.2960     2.2457    -8.2211 H       
  34 H34           -4.3969     3.5119    -8.6115 H       
  35 H35            2.3964    -2.1220     0.1139 H       
  36 H36            1.6748     2.1452     1.0775 H       
  37 H37            1.7127     2.1814    -0.7017 H       
  38 H38            0.8698     3.4660     0.1968 H       
@<TRIPOS>BOND
   1    1   13 1
   2    1   23 1
   3    2   11 2
   4    3   12 2
   5    4   10 1
   6    4   11 am
   7    4   16 1
   8    5    7 1
   9    5   12 am
  10    5   26 1
  11    6   10 2
  12    6   15 1
  13    7    8 1
  14    7   24 1
  15    7   25 1
  16    8   13 ar
  17    8   14 ar
  18    9   11 1
  19    9   12 1
  20    9   15 2
  21   10   17 1
  22   13   18 ar
  23   14   19 ar
  24   14   27 1
  25   15   28 1
  26   16   20 2
  27   16   29 1
  28   17   21 2
  29   17   30 1
  30   18   22 ar
  31   18   31 1
  32   19   22 ar
  33   19   32 1
  34   20   21 1
  35   20   33 1
  36   21   34 1
  37   22   35 1
  38   23   36 1
  39   23   37 1
  40   23   38 1

#	End of record

#	Name: 5310220
#	Creating user name:	landrgr1
#	Creation time:	28. 01. 2015 13:52

#	Modifying user name:	landrgr1
#	Modification time:	28. 01. 2015 13:52

#	Program:	corina 3.48 0006  22.01.2010

@<TRIPOS>MOLECULE
5310220
  51   54    0    0    0
SMALL
NO_CHARGES


@<TRIPOS>ATOM
   1 S1            -0.0220     1.7685     0.0118 S.3     
   2 O2            -9.6511     0.4185    -1.0241 O.3     
   3 O3            -0.9832    -2.1143     0.0009 O.2     
   4 N4            -7.2923    -0.6440     0.0692 N.3     
   5 N5            -2.4042    -0.4064     0.0232 N.am    
   6 N6             2.2327     0.6528    -0.0158 N.pl3   
   7 N7             2.7321     2.7839    -0.0087 N.2     
   8 C8            -6.0529    -1.4323     0.0532 C.3     
   9 C9            -8.4645    -1.5006    -0.1622 C.3     
  10 C10           -7.2382     0.4429    -0.9193 C.3     
  11 C11           -4.8484    -0.4888     0.0464 C.3     
  12 C12           -9.7353    -0.6509    -0.0782 C.3     
  13 C13           -8.5213     1.2731    -0.8278 C.3     
  14 C14           -3.5575    -1.3099     0.0298 C.3     
  15 C15            1.3004    -0.3431    -0.0122 C.2     
  16 C16            0.0021    -0.0041     0.0020 C.2     
  17 C17           -1.1540    -0.9097     0.0086 C.2     
  18 C18            1.7414     1.9260    -0.0042 C.2     
  19 C19            3.6173     0.7824    -0.0276 C.2     
  20 C20            3.8984     2.1070    -0.0233 C.2     
  21 C21            1.7190    -1.7907    -0.0245 C.3     
  22 C22            5.2541     2.7091    -0.0321 C.ar    
  23 C23            5.4042     4.0946    -0.0249 C.ar    
  24 C24            6.3826     1.8912    -0.0419 C.ar    
  25 C25            6.6679     4.6493    -0.0332 C.ar    
  26 C26            7.6414     2.4569    -0.0501 C.ar    
  27 C27            7.7843     3.8328    -0.0492 C.ar    
  28 H28           -6.0135    -2.0653     0.9397 H       
  29 H29           -6.0306    -2.0564    -0.8401 H       
  30 H30           -8.3945    -1.9540    -1.1509 H       
  31 H31           -8.4990    -2.2829     0.5961 H       
  32 H32           -6.3774     1.0793    -0.7137 H       
  33 H33           -7.1486     0.0205    -1.9201 H       
  34 H34           -4.8878     0.1442    -0.8401 H       
  35 H35           -4.8707     0.1353     0.9398 H       
  36 H36           -9.8332    -0.2409     0.9270 H       
  37 H37          -10.6030    -1.2703    -0.3055 H       
  38 H38           -8.5109     2.0452    -1.5971 H       
  39 H39           -8.5839     1.7391     0.1556 H       
  40 H40           -3.5353    -1.9339    -0.8636 H       
  41 H41           -3.5181    -1.9429     0.9163 H       
  42 H42           -2.5404     0.5539     0.0293 H       
  43 H43            4.3355    -0.0241    -0.0385 H       
  44 H44            1.8300    -2.1456     1.0002 H       
  45 H45            0.9599    -2.3841    -0.5342 H       
  46 H46            2.6698    -1.8896    -0.5482 H       
  47 H47            4.5331     4.7331    -0.0132 H       
  48 H48            6.2721     0.8169    -0.0426 H       
  49 H49            6.7853     5.7229    -0.0277 H       
  50 H50            8.5166     1.8241    -0.0573 H       
  51 H51            8.7713     4.2711    -0.0563 H       
@<TRIPOS>BOND
   1    1   16 1
   2    1   18 1
   3    2   12 1
   4    2   13 1
   5    3   17 2
   6    4    8 1
   7    4    9 1
   8    4   10 1
   9    5   14 1
  10    5   17 am
  11    5   42 1
  12    6   15 1
  13    6   18 1
  14    6   19 1
  15    7   18 2
  16    7   20 1
  17    8   11 1
  18    8   28 1
  19    8   29 1
  20    9   12 1
  21    9   30 1
  22    9   31 1
  23   10   13 1
  24   10   32 1
  25   10   33 1
  26   11   14 1
  27   11   34 1
  28   11   35 1
  29   12   36 1
  30   12   37 1
  31   13   38 1
  32   13   39 1
  33   14   40 1
  34   14   41 1
  35   15   16 2
  36   15   21 1
  37   16   17 1
  38   19   20 2
  39   19   43 1
  40   20   22 1
  41   21   44 1
  42   21   45 1
  43   21   46 1
  44   22   23 ar
  45   22   24 ar
  46   23   25 ar
  47   23   47 1
  48   24   26 ar
  49   24   48 1
  50   25   27 ar
  51   25   49 1
  52   26   27 ar
  53   26   50 1
  54   27   51 1

#	End of record

#	Name: 5310104
#	Creating user name:	landrgr1
#	Creation time:	28. 01. 2015 13:52

#	Modifying user name:	landrgr1
#	Modification time:	28. 01. 2015 13:52

#	Program:	corina 3.48 0006  22.01.2010

@<TRIPOS>MOLECULE
5310104
  51   54    0    0    0
SMALL
NO_CHARGES


@<TRIPOS>ATOM
   1 O1            -5.9706    -0.9947     2.4041 O.2     
   2 O2            -0.0682     1.0265    -1.0016 O.3     
   3 O3           -11.8910    -6.9483    -1.3885 O.3     
   4 O4            -3.6650    -1.8726    -0.0471 O.2     
   5 N5            -6.0334    -0.7679     0.1753 N.am    
   6 N6            -9.2434    -3.2989     0.2392 N.pl3   
   7 N7            -7.6604    -1.8853    -1.0713 N.2     
   8 N8            -2.4188    -0.0385     0.0259 N.am    
   9 N9            -8.3596    -2.8475     2.1964 N.2     
  10 N10           -9.2968    -3.5200     1.6237 N.2     
  11 C11           -8.1977    -2.4493     0.0193 C.2     
  12 C12           -7.6500    -2.1754     1.2791 C.2     
  13 C13           -4.8813     0.1371     0.1806 C.3     
  14 C14           -6.4957    -1.2755     1.3411 C.2     
  15 C15          -10.0920    -3.8506    -0.7302 C.ar    
  16 C16           -6.6342    -1.0881    -0.9978 C.2     
  17 C17           -3.6123    -0.6643     0.0449 C.2     
  18 C18           -1.2349    -0.7878     0.0167 C.ar    
  19 C19          -10.5762    -5.1415    -0.5757 C.ar    
  20 C20          -10.4539    -3.1035    -1.8439 C.ar    
  21 C21           -0.0643    -0.2382    -0.5020 C.ar    
  22 C22          -11.4154    -5.6839    -1.5367 C.ar    
  23 C23          -11.2903    -3.6472    -2.7993 C.ar    
  24 C24           -1.2236    -2.0764     0.5293 C.ar    
  25 C25          -11.7691    -4.9351    -2.6501 C.ar    
  26 C26            1.1033    -0.9834    -0.5081 C.ar    
  27 C27           -0.0543    -2.8137     0.5192 C.ar    
  28 C28            1.1054    -2.2697    -0.0005 C.ar    
  29 C29            1.1682     1.5243    -1.5168 C.3     
  30 C30            0.9689     2.9517    -2.0305 C.3     
  31 C31          -12.7508    -7.4427    -2.4173 C.3     
  32 H32           -4.9624     0.8333    -0.6542 H       
  33 H33           -4.8610     0.6939     1.1174 H       
  34 H34           -6.2444    -0.6627    -1.9107 H       
  35 H35           -2.3795     0.9307     0.0185 H       
  36 H36          -10.2996    -5.7229     0.2914 H       
  37 H37          -10.0814    -2.0968    -1.9626 H       
  38 H38          -11.5706    -3.0648    -3.6645 H       
  39 H39           -2.1281    -2.5037     0.9362 H       
  40 H40          -12.4226    -5.3577    -3.3989 H       
  41 H41            2.0120    -0.5599    -0.9096 H       
  42 H42           -0.0466    -3.8170     0.9189 H       
  43 H43            2.0167    -2.8494    -0.0063 H       
  44 H44            1.9179     1.5243    -0.7256 H       
  45 H45            1.5037     0.8872    -2.3352 H       
  46 H46            0.2192     2.9517    -2.8218 H       
  47 H47            0.6334     3.5888    -1.2122 H       
  48 H48            1.9120     3.3314    -2.4235 H       
  49 H49          -12.2184    -7.4396    -3.3684 H       
  50 H50          -13.0580    -8.4603    -2.1762 H       
  51 H51          -13.6318    -6.8053    -2.4921 H       
@<TRIPOS>BOND
   1    1   14 2
   2    2   21 1
   3    2   29 1
   4    3   22 1
   5    3   31 1
   6    4   17 2
   7    5   13 1
   8    5   14 am
   9    5   16 1
  10    6   10 1
  11    6   11 1
  12    6   15 1
  13    7   11 1
  14    7   16 2
  15    8   17 am
  16    8   18 1
  17    8   35 1
  18    9   10 2
  19    9   12 1
  20   11   12 2
  21   12   14 1
  22   13   17 1
  23   13   32 1
  24   13   33 1
  25   15   19 ar
  26   15   20 ar
  27   16   34 1
  28   18   21 ar
  29   18   24 ar
  30   19   22 ar
  31   19   36 1
  32   20   23 ar
  33   20   37 1
  34   21   26 ar
  35   22   25 ar
  36   23   25 ar
  37   23   38 1
  38   24   27 ar
  39   24   39 1
  40   25   40 1
  41   26   28 ar
  42   26   41 1
  43   27   28 ar
  44   27   42 1
  45   28   43 1
  46   29   30 1
  47   29   44 1
  48   29   45 1
  49   30   46 1
  50   30   47 1
  51   30   48 1
  52   31   49 1
  53   31   50 1
  54   31   51 1

#	End of record

#	Name: 5310018
#	Creating user name:	landrgr1
#	Creation time:	28. 01. 2015 13:52

#	Modifying user name:	landrgr1
#	Modification time:	28. 01. 2015 13:52

#	Program:	corina 3.48 0006  22.01.2010

@<TRIPOS>MOLECULE
5310018
  47   50    0    0    0
SMALL
NO_CHARGES


@<TRIPOS>ATOM
   1 O1            -0.0175     1.4400     0.0100 O.3     
   2 O2            -3.9180    -1.2359     0.8285 O.2     
   3 O3            -6.4758     1.0942     0.4778 O.2     
   4 N4            -2.3962    -0.2196    -0.4258 N.am    
   5 N5            -6.0352    -0.7896    -0.6536 N.am    
   6 N6            -9.5990    -2.2006     0.7620 N.pl3   
   7 N7            -7.5486    -2.5662    -0.6066 N.2     
   8 N8            -9.0712    -0.1687     1.4004 N.2     
   9 N9            -9.9776    -1.0769     1.5119 N.2     
  10 C10            0.0021    -0.0041     0.0020 C.3     
  11 C11            1.1520    -0.3885     0.9592 C.3     
  12 C12            2.0729     0.8522     0.9571 C.3     
  13 C13            1.3704     1.8394    -0.0011 C.3     
  14 C14           -1.3278    -0.5576     0.5178 C.3     
  15 C15           -3.6628    -0.6073    -0.1768 C.2     
  16 C16           -4.7619    -0.2596    -1.1474 C.3     
  17 C17           -8.3942    -1.9062     0.1978 C.2     
  18 C18           -8.0764    -0.6083     0.6168 C.2     
  19 C19           -6.8134    -0.0300     0.1514 C.2     
  20 C20          -10.3488    -3.4512     0.6207 C.3     
  21 C21           -6.4304    -2.0370    -1.0103 C.2     
  22 C22          -11.2768    -3.3496    -0.5623 C.ar    
  23 C23          -10.8433    -3.7378    -1.8162 C.ar    
  24 C24          -12.5635    -2.8735    -0.3925 C.ar    
  25 C25          -11.6946    -3.6445    -2.9013 C.ar    
  26 C26          -13.4147    -2.7803    -1.4777 C.ar    
  27 C27          -12.9795    -3.1635    -2.7325 C.ar    
  28 H28            0.2045    -0.3753    -1.0026 H       
  29 H29            0.7676    -0.5771     1.9616 H       
  30 H30            1.6861    -1.2612     0.5835 H       
  31 H31            2.1438     1.2770     1.9584 H       
  32 H32            3.0622     0.5929     0.5803 H       
  33 H33            1.7827     1.7510    -1.0063 H       
  34 H34            1.4741     2.8613     0.3638 H       
  35 H35           -1.5506    -0.1200     1.4909 H       
  36 H36           -1.2574    -1.6411     0.6141 H       
  37 H37           -2.1921     0.2832    -1.2299 H       
  38 H38           -4.5391    -0.6972    -2.1205 H       
  39 H39           -4.8322     0.8239    -1.2438 H       
  40 H40           -9.6534    -4.2765     0.4672 H       
  41 H41          -10.9309    -3.6300     1.5248 H       
  42 H42           -5.7891    -2.6163    -1.6579 H       
  43 H43           -9.8394    -4.1136    -1.9481 H       
  44 H44          -12.9037    -2.5747     0.5880 H       
  45 H45          -11.3556    -3.9471    -3.8811 H       
  46 H46          -14.4201    -2.4087    -1.3450 H       
  47 H47          -13.6444    -3.0903    -3.5804 H       
@<TRIPOS>BOND
   1    1   10 1
   2    1   13 1
   3    2   15 2
   4    3   19 2
   5    4   14 1
   6    4   15 am
   7    4   37 1
   8    5   16 1
   9    5   19 am
  10    5   21 1
  11    6    9 1
  12    6   17 1
  13    6   20 1
  14    7   17 1
  15    7   21 2
  16    8    9 2
  17    8   18 1
  18   10   11 1
  19   10   14 1
  20   10   28 1
  21   11   12 1
  22   11   29 1
  23   11   30 1
  24   12   13 1
  25   12   31 1
  26   12   32 1
  27   13   33 1
  28   13   34 1
  29   14   35 1
  30   14   36 1
  31   15   16 1
  32   16   38 1
  33   16   39 1
  34   17   18 2
  35   18   19 1
  36   20   22 1
  37   20   40 1
  38   20   41 1
  39   21   42 1
  40   22   23 ar
  41   22   24 ar
  42   23   25 ar
  43   23   43 1
  44   24   26 ar
  45   24   44 1
  46   25   27 ar
  47   25   45 1
  48   26   27 ar
  49   26   46 1
  50   27   47 1

#	End of record

#	Name: 5309981
#	Creating user name:	landrgr1
#	Creation time:	28. 01. 2015 13:52

#	Modifying user name:	landrgr1
#	Modification time:	28. 01. 2015 13:52

#	Program:	corina 3.48 0006  22.01.2010

@<TRIPOS>MOLECULE
5309981
  55   58    0    0    0
SMALL
NO_CHARGES


@<TRIPOS>ATOM
   1 O1            -2.1179     7.2228     0.0390 O.2     
   2 O2             1.2735     8.6219     2.5339 O.2     
   3 O3            -3.6782     4.2426     1.8623 O.2     
   4 N4            -0.0179     1.4653     0.0101 N.3     
   5 N5             2.0995     0.0476    -1.2596 N.3     
   6 N6            -1.3409     4.4003     0.6831 N.pl3   
   7 N7             0.3735     4.0424     1.9678 N.2     
   8 N8             0.9890     6.4357     2.3710 N.am    
   9 N9            -0.4236     7.9650     1.2822 N.am    
  10 N10           -4.9443     3.8851     0.0760 N.am    
  11 C11            0.0021    -0.0041     0.0020 C.3     
  12 C12            1.3479     2.0078    -0.0000 C.3     
  13 C13            0.7337    -0.4948    -1.2495 C.3     
  14 C14            2.0796     1.5170    -1.2516 C.3     
  15 C15           -0.7783     1.9752     1.1589 C.3     
  16 C16            2.8599    -0.4622    -2.4084 C.3     
  17 C17           -0.5745     3.4638     1.2755 C.2     
  18 C18           -0.8235     5.6295     1.0397 C.2     
  19 C19            0.2681     5.3692     1.8585 C.2     
  20 C20            4.1579     0.2941    -2.5273 C.ar    
  21 C21           -2.4995     4.1596    -0.1806 C.3     
  22 C22           -1.1650     6.9690     0.7539 C.2     
  23 C23            5.2864    -0.1624    -1.8723 C.ar    
  24 C24            4.2215     1.4414    -3.2959 C.ar    
  25 C25            0.6290     7.6987     2.0746 C.2     
  26 C26           -3.7487     4.0990     0.6601 C.2     
  27 C27            2.1445     6.1886     3.2370 C.3     
  28 C28            6.4770     0.5315    -1.9813 C.ar    
  29 C29            5.4121     2.1352    -3.4049 C.ar    
  30 C30            6.5393     1.6816    -2.7457 C.ar    
  31 H31            0.5192    -0.3656     0.8908 H       
  32 H32           -1.0204    -0.3816    -0.0030 H       
  33 H33            1.3066     3.0970    -0.0066 H       
  34 H34            1.8803     1.6690     0.8887 H       
  35 H35            0.2013    -0.1561    -2.1383 H       
  36 H36            0.7751    -1.5840    -1.2430 H       
  37 H37            3.1021     1.8946    -1.2465 H       
  38 H38            1.5625     1.8786    -2.1404 H       
  39 H39           -1.8380     1.7637     1.0160 H       
  40 H40           -0.4303     1.4884     2.0699 H       
  41 H41            3.0690    -1.5222    -2.2642 H       
  42 H42            2.2763    -0.3277    -3.3191 H       
  43 H43           -2.5876     4.9698    -0.9044 H       
  44 H44           -2.3698     3.2143    -0.7074 H       
  45 H45            5.2378    -1.0609    -1.2751 H       
  46 H46            3.3410     1.7954    -3.8115 H       
  47 H47           -0.6546     8.8869     1.0884 H       
  48 H48            3.0447     6.1085     2.6277 H       
  49 H49            2.2543     7.0138     3.9406 H       
  50 H50            1.9943     5.2597     3.7871 H       
  51 H51            7.3585     0.1752    -1.4690 H       
  52 H52            5.4618     3.0313    -4.0057 H       
  53 H53            7.4694     2.2239    -2.8306 H       
  54 H54           -5.7484     3.8460     0.6171 H       
  55 H55           -5.0007     3.7702    -0.8855 H       
@<TRIPOS>BOND
   1    1   22 2
   2    2   25 2
   3    3   26 2
   4    4   11 1
   5    4   12 1
   6    4   15 1
   7    5   13 1
   8    5   14 1
   9    5   16 1
  10    6   17 1
  11    6   18 1
  12    6   21 1
  13    7   17 2
  14    7   19 1
  15    8   19 1
  16    8   25 am
  17    8   27 1
  18    9   22 am
  19    9   25 am
  20    9   47 1
  21   10   26 am
  22   10   54 1
  23   10   55 1
  24   11   13 1
  25   11   31 1
  26   11   32 1
  27   12   14 1
  28   12   33 1
  29   12   34 1
  30   13   35 1
  31   13   36 1
  32   14   37 1
  33   14   38 1
  34   15   17 1
  35   15   39 1
  36   15   40 1
  37   16   20 1
  38   16   41 1
  39   16   42 1
  40   18   19 2
  41   18   22 1
  42   20   23 ar
  43   20   24 ar
  44   21   26 1
  45   21   43 1
  46   21   44 1
  47   23   28 ar
  48   23   45 1
  49   24   29 ar
  50   24   46 1
  51   27   48 1
  52   27   49 1
  53   27   50 1
  54   28   30 ar
  55   28   51 1
  56   29   30 ar
  57   29   52 1
  58   30   53 1

#	End of record

#	Name: 5309919
#	Creating user name:	landrgr1
#	Creation time:	28. 01. 2015 13:52

#	Modifying user name:	landrgr1
#	Modification time:	28. 01. 2015 13:52

#	Program:	corina 3.48 0006  22.01.2010

@<TRIPOS>MOLECULE
5309919
  31   32    0    0    0
SMALL
NO_CHARGES


@<TRIPOS>ATOM
   1 O1             2.1814     1.5908    -0.1877 O.2     
   2 N2            -0.0092     1.3794     0.1112 N.am    
   3 N3             1.0347     3.4673     0.1237 N.am    
   4 N4             3.3682     3.6460    -0.0914 N.ar    
   5 N5             0.4112    -5.3412    -0.0011 N.1     
   6 C6             0.0781    -0.0131     0.0882 C.ar    
   7 C7             2.2005     4.2314     0.1232 C.ar    
   8 C8             4.4948     4.3322    -0.1006 C.ar    
   9 C9            -0.7897    -0.7756     0.8631 C.ar    
  10 C10            1.0291    -0.6354    -0.7139 C.ar    
  11 C11            2.1261     5.6012     0.3477 C.ar    
  12 C12            1.1078     2.1265     0.0086 C.2     
  13 C13            4.4950     5.6963     0.1152 C.ar    
  14 C14            3.2911     6.3482     0.3441 C.ar    
  15 C15           -0.7068    -2.1498     0.8426 C.ar    
  16 C16            1.1176    -2.0093    -0.7398 C.ar    
  17 C17            0.2510    -2.7786     0.0419 C.ar    
  18 C18            5.7985     3.6184    -0.3497 C.3     
  19 C19            0.3404    -4.2076     0.0179 C.1     
  20 H20           -0.8743     1.8097     0.1970 H       
  21 H21            0.1708     3.9006     0.2068 H       
  22 H22           -1.5293    -0.2891     1.4818 H       
  23 H23            1.6985    -0.0404    -1.3173 H       
  24 H24            1.1720     6.0762     0.5221 H       
  25 H25            5.4222     6.2499     0.1066 H       
  26 H26            3.2642     7.4142     0.5152 H       
  27 H27           -1.3806    -2.7412     1.4447 H       
  28 H28            1.8561    -2.4918    -1.3628 H       
  29 H29            6.0073     3.6060    -1.4194 H       
  30 H30            6.6026     4.1380     0.1715 H       
  31 H31            5.7285     2.5949     0.0187 H       
@<TRIPOS>BOND
   1    1   12 2
   2    2    6 1
   3    2   12 am
   4    2   20 1
   5    3    7 1
   6    3   12 am
   7    3   21 1
   8    4    7 ar
   9    4    8 ar
  10    5   19 3
  11    6    9 ar
  12    6   10 ar
  13    7   11 ar
  14    8   13 ar
  15    8   18 1
  16    9   15 ar
  17    9   22 1
  18   10   16 ar
  19   10   23 1
  20   11   14 ar
  21   11   24 1
  22   13   14 ar
  23   13   25 1
  24   14   26 1
  25   15   17 ar
  26   15   27 1
  27   16   17 ar
  28   16   28 1
  29   17   19 1
  30   18   29 1
  31   18   30 1
  32   18   31 1

#	End of record

#	Name: 5309859
#	Creating user name:	landrgr1
#	Creation time:	28. 01. 2015 13:52

#	Modifying user name:	landrgr1
#	Modification time:	28. 01. 2015 13:52

#	Program:	corina 3.48 0006  22.01.2010

@<TRIPOS>MOLECULE
5309859
  51   54    0    0    0
SMALL
NO_CHARGES


@<TRIPOS>ATOM
   1 S1            -0.4294     1.8450    -0.3478 S.3     
   2 S2             5.5096     1.2734    -4.9061 S.3     
   3 O3             2.0106     2.9525    -0.1699 O.2     
   4 O4             6.6448     1.3907    -7.4573 O.2     
   5 N5             1.7790     0.6808    -0.2660 N.am    
   6 N6             4.3736     1.1583    -2.3514 N.pl3   
   7 N7             3.7284    -0.8933    -2.2887 N.2     
   8 N8             4.2801    -0.7013    -3.4336 N.2     
   9 N9             6.3969    -0.6452    -8.3033 N.am    
  10 C10            3.2132     0.3907    -0.1954 C.3     
  11 C11            0.8550    -0.3448    -0.3551 C.ar    
  12 C12            3.7573     0.2051    -1.5884 C.2     
  13 C13           -0.4738     0.0778    -0.4144 C.ar    
  14 C14            1.3365     1.9418    -0.2451 C.2     
  15 C15            1.0984    -1.7260    -0.3911 C.ar    
  16 C16            4.6944     0.5410    -3.5263 C.2     
  17 C17           -1.5169    -0.8257    -0.5058 C.ar    
  18 C18            4.6306     2.5536    -1.9863 C.3     
  19 C19            0.0580    -2.6212    -0.4824 C.ar    
  20 C20           -1.2531    -2.1816    -0.5402 C.ar    
  21 C21            8.0201     0.5310   -11.9555 C.ar    
  22 C22            5.5660    -0.1462    -6.0276 C.3     
  23 C23            8.6071     0.9567   -13.2766 C.3     
  24 C24            6.9419    -0.2499    -9.5300 C.ar    
  25 C25            8.4730     1.1056   -10.7821 C.ar    
  26 C26            7.0258    -0.4293   -11.9197 C.ar    
  27 C27            7.9369     0.7180    -9.5698 C.ar    
  28 C28            6.4855    -0.8213   -10.7106 C.ar    
  29 C29            6.2413     0.2560    -7.3134 C.2     
  30 C30            9.8111     0.0728   -13.6083 C.3     
  31 H31            3.7284     1.2205     0.2884 H       
  32 H32            3.3716    -0.5209     0.3809 H       
  33 H33            2.1140    -2.0906    -0.3472 H       
  34 H34           -2.5364    -0.4719    -0.5499 H       
  35 H35            5.6391     2.6437    -1.5828 H       
  36 H36            4.5353     3.1839    -2.8705 H       
  37 H37            3.9085     2.8712    -1.2341 H       
  38 H38            0.2668    -3.6805    -0.5084 H       
  39 H39           -2.0632    -2.8923    -0.6111 H       
  40 H40            6.1265    -0.9561    -5.5607 H       
  41 H41            4.5510    -0.4820    -6.2399 H       
  42 H42            7.8546     0.8540   -14.0585 H       
  43 H43            8.9264     1.9970   -13.2140 H       
  44 H44            9.2471     1.8581   -10.8137 H       
  45 H45            6.6711    -0.8730   -12.8382 H       
  46 H46            8.2939     1.1642    -8.6534 H       
  47 H47            5.7121    -1.5746   -10.6830 H       
  48 H48            6.1311    -1.5679    -8.1655 H       
  49 H49           10.2356     0.3807   -14.5638 H       
  50 H50           10.5636     0.1754   -12.8264 H       
  51 H51            9.4918    -0.9675   -13.6709 H       
@<TRIPOS>BOND
   1    1   13 1
   2    1   14 1
   3    2   16 1
   4    2   22 1
   5    3   14 2
   6    4   29 2
   7    5   10 1
   8    5   11 1
   9    5   14 am
  10    6   12 1
  11    6   16 1
  12    6   18 1
  13    7    8 1
  14    7   12 2
  15    8   16 2
  16    9   24 1
  17    9   29 am
  18    9   48 1
  19   10   12 1
  20   10   31 1
  21   10   32 1
  22   11   13 ar
  23   11   15 ar
  24   13   17 ar
  25   15   19 ar
  26   15   33 1
  27   17   20 ar
  28   17   34 1
  29   18   35 1
  30   18   36 1
  31   18   37 1
  32   19   20 ar
  33   19   38 1
  34   20   39 1
  35   21   23 1
  36   21   25 ar
  37   21   26 ar
  38   22   29 1
  39   22   40 1
  40   22   41 1
  41   23   30 1
  42   23   42 1
  43   23   43 1
  44   24   27 ar
  45   24   28 ar
  46   25   27 ar
  47   25   44 1
  48   26   28 ar
  49   26   45 1
  50   27   46 1
  51   28   47 1
  52   30   49 1
  53   30   50 1
  54   30   51 1

#	End of record

#	Name: 5309690
#	Creating user name:	landrgr1
#	Creation time:	28. 01. 2015 13:52

#	Modifying user name:	landrgr1
#	Modification time:	28. 01. 2015 13:52

#	Program:	corina 3.48 0006  22.01.2010

@<TRIPOS>MOLECULE
5309690
  48   50    0    0    0
SMALL
NO_CHARGES


@<TRIPOS>ATOM
   1 O1            -0.0173     1.4259     0.0099 O.3     
   2 O2             6.5613     1.3727    -3.2956 O.2     
   3 N3             2.1015     0.0829    -1.2528 N.3     
   4 N4             8.1634     0.7286    -5.2697 N.pl3   
   5 N5             8.2677     2.1256    -5.3607 N.2     
   6 N6             4.9405    -0.0948    -3.6717 N.am    
   7 C7            12.3275     1.8716    -4.2197 C.3     
   8 C8            12.3074     3.3713    -4.3711 C.3     
   9 C9            10.9651     4.0506    -4.2835 C.3     
  10 C10           11.7885     1.1813    -5.4819 C.3     
  11 C11           10.1404     3.8169    -5.5583 C.3     
  12 C12           10.2715     1.2473    -5.4085 C.2     
  13 C13            9.5322     2.4279    -5.4431 C.2     
  14 C14            0.7485    -0.4921    -1.2424 C.3     
  15 C15            2.0433     1.5519    -1.2438 C.3     
  16 C16            2.8725    -0.4063    -2.4036 C.3     
  17 C17            9.4141     0.2141    -5.3013 C.2     
  18 C18            0.0021    -0.0041     0.0020 C.3     
  19 C19            1.2838     2.0194     0.0006 C.3     
  20 C20            4.1715     0.3931    -2.5241 C.3     
  21 C21            6.9196    -0.0368    -5.1543 C.3     
  22 C22            6.1287     0.4650    -3.9738 C.2     
  23 H23           13.3520     1.5437    -4.0433 H       
  24 H24           11.7111     1.5902    -3.3659 H       
  25 H25           12.9485     3.7952    -3.5981 H       
  26 H26           12.7466     3.6169    -5.3380 H       
  27 H27           12.1418     1.7033    -6.3712 H       
  28 H28           12.1145     0.1414    -5.5054 H       
  29 H29           10.4193     3.6545    -3.4272 H       
  30 H30           11.1149     5.1215    -4.1462 H       
  31 H31            9.3503     4.5641    -5.6327 H       
  32 H32           10.7867     3.8687    -6.4344 H       
  33 H33            0.2115    -0.1755    -2.1365 H       
  34 H34            0.8155    -1.5799    -1.2234 H       
  35 H35            3.0554     1.9561    -1.2258 H       
  36 H36            1.5270     1.9012    -2.1379 H       
  37 H37            3.1070    -1.4613    -2.2618 H       
  38 H38            2.2848    -0.2837    -3.3133 H       
  39 H39            9.6767    -0.8322    -5.2498 H       
  40 H40            0.5095    -0.3661     0.8962 H       
  41 H41           -1.0202    -0.3818    -0.0153 H       
  42 H42            1.1886     3.1051    -0.0176 H       
  43 H43            1.8285     1.7162     0.8948 H       
  44 H44            4.7593     0.2705    -1.6143 H       
  45 H45            3.9371     1.4481    -2.6658 H       
  46 H46            6.3319     0.0858    -6.0640 H       
  47 H47            7.1540    -1.0918    -5.0125 H       
  48 H48            4.5944    -0.8207    -4.2141 H       
@<TRIPOS>BOND
   1    1   18 1
   2    1   19 1
   3    2   22 2
   4    3   14 1
   5    3   15 1
   6    3   16 1
   7    4    5 1
   8    4   17 1
   9    4   21 1
  10    5   13 2
  11    6   20 1
  12    6   22 am
  13    6   48 1
  14    7    8 1
  15    7   10 1
  16    7   23 1
  17    7   24 1
  18    8    9 1
  19    8   25 1
  20    8   26 1
  21    9   11 1
  22    9   29 1
  23    9   30 1
  24   10   12 1
  25   10   27 1
  26   10   28 1
  27   11   13 1
  28   11   31 1
  29   11   32 1
  30   12   13 1
  31   12   17 2
  32   14   18 1
  33   14   33 1
  34   14   34 1
  35   15   19 1
  36   15   35 1
  37   15   36 1
  38   16   20 1
  39   16   37 1
  40   16   38 1
  41   17   39 1
  42   18   40 1
  43   18   41 1
  44   19   42 1
  45   19   43 1
  46   20   44 1
  47   20   45 1
  48   21   22 1
  49   21   46 1
  50   21   47 1

#	End of record

#	Name: 5309584
#	Creating user name:	landrgr1
#	Creation time:	28. 01. 2015 13:52

#	Modifying user name:	landrgr1
#	Modification time:	28. 01. 2015 13:52

#	Program:	corina 3.48 0006  22.01.2010

@<TRIPOS>MOLECULE
5309584
  42   45    0    0    0
SMALL
NO_CHARGES


@<TRIPOS>ATOM
   1 S1             0.4209     2.0722    -0.0646 S.o2    
   2 O2             1.1815     0.9980     0.4709 O.2     
   3 O3             1.0458     3.1223    -0.7898 O.2     
   4 O4            -3.3298     1.9263    -0.9543 O.2     
   5 O5            -4.0468     8.0160     0.0052 O.3     
   6 O6            -6.1187     7.3460    -0.6189 O.3     
   7 N7            -2.0137     3.6987    -1.1759 N.am    
   8 C8            -1.0197     1.4430    -0.9697 C.3     
   9 C9            -0.7563     0.5508    -2.1845 C.3     
  10 C10           -1.3024    -0.0586    -0.8917 C.3     
  11 C11           -2.2045     2.3722    -1.0326 C.2     
  12 C12           -0.2626     2.8686     1.3508 C.ar    
  13 C13           -0.5921     2.1266     2.4696 C.ar    
  14 C14           -0.4641     4.2362     1.3445 C.ar    
  15 C15           -3.0972     4.5790    -1.0584 C.ar    
  16 C16           -1.1284     2.7514     3.5800 C.ar    
  17 C17           -1.0003     4.8610     2.4549 C.ar    
  18 C18           -1.3348     4.1182     3.5717 C.ar    
  19 C19           -2.9003     5.8595    -0.5603 C.ar    
  20 C20           -4.3680     4.1709    -1.4411 C.ar    
  21 C21           -3.9717     6.7294    -0.4447 C.ar    
  22 C22           -5.4375     5.0380    -1.3260 C.ar    
  23 C23           -5.2454     6.3169    -0.8286 C.ar    
  24 C24           -1.9198     4.7992     4.7821 C.3     
  25 C25           -5.3005     8.5236    -0.4884 C.3     
  26 H26           -1.4402     0.6357    -3.0290 H       
  27 H27            0.2826     0.3420    -2.4397 H       
  28 H28           -0.6228    -0.6684    -0.2964 H       
  29 H29           -2.3456    -0.3747    -0.8857 H       
  30 H30           -1.1262     4.0439    -1.3605 H       
  31 H31           -0.4309     1.0587     2.4761 H       
  32 H32           -0.2022     4.8166     0.4721 H       
  33 H33           -1.3865     2.1715     4.4538 H       
  34 H34           -1.1574     5.9295     2.4501 H       
  35 H35           -1.9119     6.1773    -0.2628 H       
  36 H36           -4.5205     3.1746    -1.8291 H       
  37 H37           -6.4250     4.7184    -1.6245 H       
  38 H38           -1.1154     5.1084     5.4494 H       
  39 H39           -2.4876     5.6749     4.4673 H       
  40 H40           -2.5798     4.1070     5.3050 H       
  41 H41           -5.7406     9.2185     0.2268 H       
  42 H42           -5.1642     9.0045    -1.4571 H       
@<TRIPOS>BOND
   1    1    2 2
   2    1    3 2
   3    1    8 1
   4    1   12 1
   5    4   11 2
   6    5   21 1
   7    5   25 1
   8    6   23 1
   9    6   25 1
  10    7   11 am
  11    7   15 1
  12    7   30 1
  13    8    9 1
  14    8   10 1
  15    8   11 1
  16    9   10 1
  17    9   26 1
  18    9   27 1
  19   10   28 1
  20   10   29 1
  21   12   13 ar
  22   12   14 ar
  23   13   16 ar
  24   13   31 1
  25   14   17 ar
  26   14   32 1
  27   15   19 ar
  28   15   20 ar
  29   16   18 ar
  30   16   33 1
  31   17   18 ar
  32   17   34 1
  33   18   24 1
  34   19   21 ar
  35   19   35 1
  36   20   22 ar
  37   20   36 1
  38   21   23 ar
  39   22   23 ar
  40   22   37 1
  41   24   38 1
  42   24   39 1
  43   24   40 1
  44   25   41 1
  45   25   42 1

#	End of record

#	Name: 5309571
#	Creating user name:	landrgr1
#	Creation time:	28. 01. 2015 13:52

#	Modifying user name:	landrgr1
#	Modification time:	28. 01. 2015 13:52

#	Program:	corina 3.48 0006  22.01.2010

@<TRIPOS>MOLECULE
5309571
  65   68    0    0    0
SMALL
NO_CHARGES


@<TRIPOS>ATOM
   1 S1            -0.0172     1.4168     0.0098 S.o2    
   2 O2            -0.8384     5.5647    -3.1350 O.2     
   3 O3             0.0021    -0.0041     0.0020 O.2     
   4 O4             1.1617     2.2101     0.0028 O.2     
   5 N5            -6.2886     9.1813    -5.3302 N.3     
   6 N6            -0.9002     1.8797    -1.3124 N.am    
   7 N7            -3.0029     6.0036    -2.9238 N.am    
   8 N8            -1.8621     1.1416     2.1013 N.pl3   
   9 N9            -1.6998     3.0353     3.1233 N.2     
  10 C10           -4.2213     7.9695    -3.7188 C.3     
  11 C11           -4.0522     9.3561    -4.3460 C.3     
  12 C12           -5.1633     7.1349    -4.5909 C.3     
  13 C13           -2.0742     3.9057    -1.9991 C.3     
  14 C14           -5.4250    10.0177    -4.4870 C.3     
  15 C15           -6.5039     7.8609    -4.7248 C.3     
  16 C16           -2.8591     7.2784    -3.6312 C.3     
  17 C17           -3.0535     3.0078    -2.7585 C.3     
  18 C18           -0.7128     3.2090    -1.9097 C.3     
  19 C19           -3.2322     1.6841    -2.0036 C.3     
  20 C20           -1.8816     0.9668    -1.9142 C.3     
  21 C21           -1.9263     5.2171    -2.7267 C.2     
  22 C22           -7.5676     9.8510    -5.6014 C.3     
  23 C23           -8.3218     9.0850    -6.6575 C.ar    
  24 C24           -0.9297     1.8941     1.4396 C.2     
  25 C25           -9.1926     8.0759    -6.2901 C.ar    
  26 C26           -8.1471     9.3949    -7.9931 C.ar    
  27 C27           -0.8434     3.0693     2.0916 C.2     
  28 C28           -9.8843     7.3733    -7.2588 C.ar    
  29 C29           -8.8390     8.6921    -8.9620 C.ar    
  30 C30           -2.3135     1.8836     3.1354 C.2     
  31 C31           -9.7056     7.6798    -8.5951 C.ar    
  32 C32          -10.8328     6.2728    -6.8584 C.3     
  33 H33           -4.6443     8.0709    -2.7194 H       
  34 H34           -3.4165     9.9693    -3.7073 H       
  35 H35           -3.5933     9.2570    -5.3297 H       
  36 H36           -4.7218     7.0009    -5.5785 H       
  37 H37           -5.3215     6.1612    -4.1272 H       
  38 H38           -2.4527     4.0879    -0.9933 H       
  39 H39           -5.3095    10.9994    -4.9464 H       
  40 H40           -5.8774    10.1290    -3.5016 H       
  41 H41           -6.9512     7.9823    -3.7383 H       
  42 H42           -7.1720     7.2761    -5.3569 H       
  43 H43           -2.1615     7.9176    -3.0899 H       
  44 H44           -2.4792     7.0954    -4.6363 H       
  45 H45           -4.0161     3.5118    -2.8450 H       
  46 H46           -2.6605     2.8026    -3.7543 H       
  47 H47           -0.0409     3.7984    -1.2859 H       
  48 H48           -0.2896     3.1043    -2.9087 H       
  49 H49           -3.6006     1.8858    -0.9977 H       
  50 H50           -3.9479     1.0562    -2.5344 H       
  51 H51           -1.5517     0.6830    -2.9136 H       
  52 H52           -1.9810     0.0764    -1.2934 H       
  53 H53           -3.8729     5.7256    -2.5972 H       
  54 H54           -8.1595     9.8877    -4.6868 H       
  55 H55           -7.3792    10.8653    -5.9532 H       
  56 H56           -9.3322     7.8365    -5.2463 H       
  57 H57           -7.4705    10.1863    -8.2798 H       
  58 H58           -2.1482     0.2445     1.8685 H       
  59 H59           -0.1978     3.8945     1.8297 H       
  60 H60           -8.7028     8.9345   -10.0056 H       
  61 H61           -3.0591     1.5752     3.8533 H       
  62 H62          -10.2458     7.1306    -9.3520 H       
  63 H63          -11.8290     6.6887    -6.7079 H       
  64 H64          -10.8685     5.5197    -7.6456 H       
  65 H65          -10.4868     5.8141    -5.9322 H       
@<TRIPOS>BOND
   1    1    3 2
   2    1    4 2
   3    1    6 am
   4    1   24 1
   5    2   21 2
   6    5   14 1
   7    5   15 1
   8    5   22 1
   9    6   18 1
  10    6   20 1
  11    7   16 1
  12    7   21 am
  13    7   53 1
  14    8   24 1
  15    8   30 1
  16    8   58 1
  17    9   27 1
  18    9   30 2
  19   10   11 1
  20   10   12 1
  21   10   16 1
  22   10   33 1
  23   11   14 1
  24   11   34 1
  25   11   35 1
  26   12   15 1
  27   12   36 1
  28   12   37 1
  29   13   17 1
  30   13   18 1
  31   13   21 1
  32   13   38 1
  33   14   39 1
  34   14   40 1
  35   15   41 1
  36   15   42 1
  37   16   43 1
  38   16   44 1
  39   17   19 1
  40   17   45 1
  41   17   46 1
  42   18   47 1
  43   18   48 1
  44   19   20 1
  45   19   49 1
  46   19   50 1
  47   20   51 1
  48   20   52 1
  49   22   23 1
  50   22   54 1
  51   22   55 1
  52   23   25 ar
  53   23   26 ar
  54   24   27 2
  55   25   28 ar
  56   25   56 1
  57   26   29 ar
  58   26   57 1
  59   27   59 1
  60   28   31 ar
  61   28   32 1
  62   29   31 ar
  63   29   60 1
  64   30   61 1
  65   31   62 1
  66   32   63 1
  67   32   64 1
  68   32   65 1

#	End of record

#	Name: 5309498
#	Creating user name:	landrgr1
#	Creation time:	28. 01. 2015 13:52

#	Modifying user name:	landrgr1
#	Modification time:	28. 01. 2015 13:52

#	Program:	corina 3.48 0006  22.01.2010

@<TRIPOS>MOLECULE
5309498
  54   56    0    0    0
SMALL
NO_CHARGES


@<TRIPOS>ATOM
   1 S1            -0.0172     1.4168     0.0098 S.o2    
   2 O2             0.0021    -0.0041     0.0020 O.2     
   3 O3             1.1617     2.2101     0.0028 O.2     
   4 O4            -3.4596     0.5344     3.6746 O.3     
   5 O5            -3.9522     4.9920    -6.8366 O.3     
   6 O6            -0.6732     7.6010    -4.5703 O.3     
   7 O7            -2.5268     7.3302    -6.5837 O.3     
   8 O8            -3.0630     3.0211     4.7909 O.3     
   9 N9            -0.9002     1.8797    -1.3124 N.am    
  10 N10           -0.8128     3.1136    -1.9693 N.2     
  11 N11           -2.2144    -0.1687    -1.6166 N.pl3   
  12 C12           -1.6668     3.1107    -2.9706 C.2     
  13 C13           -0.9297     1.8941     1.4396 C.ar    
  14 C14           -1.8321     1.1269    -1.9534 C.2     
  15 C15           -1.8939     4.2248    -3.9245 C.ar    
  16 C16           -2.3268     1.8676    -2.9805 C.2     
  17 C17           -1.8427     1.0197     1.9988 C.ar    
  18 C18           -0.7268     3.1402     2.0030 C.ar    
  19 C19           -1.1682     5.4076    -3.8007 C.ar    
  20 C20           -2.8290     4.0867    -4.9480 C.ar    
  21 C21           -2.5607     1.3933     3.1234 C.ar    
  22 C22           -3.0399     5.1267    -5.8371 C.ar    
  23 C23           -1.3811     6.4461    -4.6912 C.ar    
  24 C24           -2.3189     6.3089    -5.7089 C.ar    
  25 C25           -2.3604     2.6496     3.6874 C.ar    
  26 C26           -1.4395     3.5191     3.1253 C.ar    
  27 C27           -4.6564     3.7507    -6.9093 C.3     
  28 C28            0.2730     7.6731    -3.5019 C.3     
  29 C29           -3.6133    -0.7378     3.0421 C.3     
  30 C30           -3.5310     8.2863    -6.2379 C.3     
  31 C31           -2.8054     4.3252     5.3154 C.3     
  32 H32           -3.0873     1.5563    -3.6813 H       
  33 H33           -1.9966     0.0454     1.5589 H       
  34 H34           -0.0096     3.8190     1.5656 H       
  35 H35           -0.4401     5.5145    -3.0102 H       
  36 H36           -3.3888     3.1685    -5.0480 H       
  37 H37           -1.2789     4.4930     3.5637 H       
  38 H38           -1.8025    -0.6148    -0.8601 H       
  39 H39           -2.8926    -0.6254    -2.1385 H       
  40 H40           -5.3511     3.7757    -7.7488 H       
  41 H41           -3.9449     2.9371    -7.0506 H       
  42 H42           -5.2102     3.5924    -5.9839 H       
  43 H43           -0.2430     7.5450    -2.5503 H       
  44 H44            1.0165     6.8850    -3.6211 H       
  45 H45            0.7673     8.6445    -3.5192 H       
  46 H46           -3.9389    -0.5943     2.0118 H       
  47 H47           -2.6598    -1.2658     3.0516 H       
  48 H48           -4.3584    -1.3235     3.5804 H       
  49 H49           -4.4932     7.7836    -6.1405 H       
  50 H50           -3.2711     8.7600    -5.2912 H       
  51 H51           -3.5946     9.0448    -7.0182 H       
  52 H52           -1.7553     4.4026     5.5971 H       
  53 H53           -3.0343     5.0736     4.5568 H       
  54 H54           -3.4303     4.4940     6.1924 H       
@<TRIPOS>BOND
   1    1    2 2
   2    1    3 2
   3    1    9 am
   4    1   13 1
   5    4   21 1
   6    4   29 1
   7    5   22 1
   8    5   27 1
   9    6   23 1
  10    6   28 1
  11    7   24 1
  12    7   30 1
  13    8   25 1
  14    8   31 1
  15    9   10 1
  16    9   14 1
  17   10   12 2
  18   11   14 1
  19   11   38 1
  20   11   39 1
  21   12   15 1
  22   12   16 1
  23   13   17 ar
  24   13   18 ar
  25   14   16 2
  26   15   19 ar
  27   15   20 ar
  28   16   32 1
  29   17   21 ar
  30   17   33 1
  31   18   26 ar
  32   18   34 1
  33   19   23 ar
  34   19   35 1
  35   20   22 ar
  36   20   36 1
  37   21   25 ar
  38   22   24 ar
  39   23   24 ar
  40   25   26 ar
  41   26   37 1
  42   27   40 1
  43   27   41 1
  44   27   42 1
  45   28   43 1
  46   28   44 1
  47   28   45 1
  48   29   46 1
  49   29   47 1
  50   29   48 1
  51   30   49 1
  52   30   50 1
  53   30   51 1
  54   31   52 1
  55   31   53 1
  56   31   54 1

#	End of record

#	Name: 5309456
#	Creating user name:	landrgr1
#	Creation time:	28. 01. 2015 13:52

#	Modifying user name:	landrgr1
#	Modification time:	28. 01. 2015 13:52

#	Program:	corina 3.48 0006  22.01.2010

@<TRIPOS>MOLECULE
5309456
  56   57    0    0    0
SMALL
NO_CHARGES


@<TRIPOS>ATOM
   1 Cl1            0.0000     0.0000     0.0000 Cl      
   2 H2             0.0000     1.3700     0.0000 H       
   3 O3             9.8391    12.5138    13.8395 O.3     
   4 N4             8.0055    10.4493     8.6583 N.3     
   5 N5             7.2011     8.3711     6.8864 N.3     
   6 C6             7.8416    11.3834    14.5963 C.3     
   7 C7             7.6033    12.3329    15.7966 C.3     
   8 C8             7.1072    12.1046    13.4389 C.3     
   9 C9             9.3361    11.2560    14.2942 C.3     
  10 C10            6.1585    12.8366    15.5995 C.3     
  11 C11            5.8431    12.6914    14.1004 C.3     
  12 C12            9.5487    10.1991    13.2085 C.3     
  13 C13           10.0683    10.8449    15.5456 C.ar    
  14 C14           11.0061    11.6911    16.1072 C.ar    
  15 C15            9.7980     9.6241    16.1351 C.ar    
  16 C16            8.9241    10.6513    11.9546 C.1     
  17 C17            7.2005    10.7497     7.4661 C.3     
  18 C18            7.7057     9.1037     9.1673 C.3     
  19 C19            7.5009     9.7167     6.3774 C.3     
  20 C20            8.0061     8.0707     8.0786 C.3     
  21 C21            7.8014    11.4641     9.7007 C.3     
  22 C22           11.6777    11.3140    17.2551 C.ar    
  23 C23           10.4696     9.2470    17.2830 C.ar    
  24 C24            8.4260    11.0119    10.9546 C.1     
  25 C25           11.4113    10.0910    17.8416 C.ar    
  26 C26            7.4051     7.3564     5.8440 C.3     
  27 H27            7.3996    10.4049    14.7841 H       
  28 H28            7.6926    11.7890    16.7369 H       
  29 H29            8.3050    13.1665    15.7688 H       
  30 H30            7.7288    12.9013    13.0304 H       
  31 H31            6.8346    11.3940    12.6586 H       
  32 H32            5.4685    12.2306    16.1866 H       
  33 H33            6.0838    13.8825    15.8971 H       
  34 H34            5.6154    13.6668    13.6706 H       
  35 H35            5.0000    12.0150    13.9600 H       
  36 H36           10.6168    10.0511    13.0497 H       
  37 H37            9.0944     9.2593    13.5224 H       
  38 H38           10.7828    12.5071    13.6287 H       
  39 H39           11.2143    12.6467    15.6490 H       
  40 H40            9.0619     8.9651    15.6990 H       
  41 H41            6.1419    10.7102     7.7227 H       
  42 H42            7.4496    11.7460     7.1007 H       
  43 H43            8.3230     8.9000    10.0422 H       
  44 H44            6.6528     9.0455     9.4432 H       
  45 H45            8.5538     9.7749     6.1015 H       
  46 H46            6.8835     9.9205     5.5025 H       
  47 H47            7.7570     7.0744     8.4440 H       
  48 H48            9.0647     8.1102     7.8220 H       
  49 H49            8.2557    12.4038     9.3868 H       
  50 H50            6.7333    11.6120     9.8596 H       
  51 H51           12.4109    11.9748    17.6935 H       
  52 H52           10.2582     8.2934    17.7437 H       
  53 H53           11.9363     9.7962    18.7382 H       
  54 H54            8.4428     7.3810     5.5112 H       
  55 H55            7.1762     6.3700     6.2474 H       
  56 H56            6.7478     7.5653     5.0000 H       
@<TRIPOS>BOND
   1    1    2 1
   2    3    9 1
   3    3   38 1
   4    4   17 1
   5    4   18 1
   6    4   21 1
   7    5   19 1
   8    5   20 1
   9    5   26 1
  10    6    7 1
  11    6    8 1
  12    6    9 1
  13    6   27 1
  14    7   10 1
  15    7   28 1
  16    7   29 1
  17    8   11 1
  18    8   30 1
  19    8   31 1
  20    9   12 1
  21    9   13 1
  22   10   11 1
  23   10   32 1
  24   10   33 1
  25   11   34 1
  26   11   35 1
  27   12   16 1
  28   12   36 1
  29   12   37 1
  30   13   14 ar
  31   13   15 ar
  32   14   22 ar
  33   14   39 1
  34   15   23 ar
  35   15   40 1
  36   16   24 3
  37   17   19 1
  38   17   41 1
  39   17   42 1
  40   18   20 1
  41   18   43 1
  42   18   44 1
  43   19   45 1
  44   19   46 1
  45   20   47 1
  46   20   48 1
  47   21   24 1
  48   21   49 1
  49   21   50 1
  50   22   25 ar
  51   22   51 1
  52   23   25 ar
  53   23   52 1
  54   25   53 1
  55   26   54 1
  56   26   55 1
  57   26   56 1

#	End of record

#	Name: 5309387
#	Creating user name:	landrgr1
#	Creation time:	28. 01. 2015 13:52

#	Modifying user name:	landrgr1
#	Modification time:	28. 01. 2015 13:52

#	Program:	corina 3.48 0006  22.01.2010

@<TRIPOS>MOLECULE
5309387
  31   33    0    0    0
SMALL
NO_CHARGES


@<TRIPOS>ATOM
   1 S1            -0.0583     1.6814     0.0073 S.3     
   2 S2             5.6239     1.3325    -4.8984 S.3     
   3 O3             2.3124     2.9429    -0.0010 O.2     
   4 N4             2.2207     0.6594    -0.0198 N.am    
   5 N5             4.6541     1.2287    -2.2757 N.pl3   
   6 N6             4.1295    -0.8521    -2.1215 N.2     
   7 N7             4.5987    -0.6632    -3.3030 N.2     
   8 C8             3.6721     0.4610    -0.0328 C.3     
   9 C9             1.3603    -0.4237    -0.0217 C.ar    
  10 C10            4.1397     0.2657    -1.4521 C.2     
  11 C11            0.0061    -0.0863    -0.0079 C.ar    
  12 C12            1.7008     1.8906    -0.0053 C.2     
  13 C13            1.6886    -1.7877    -0.0353 C.ar    
  14 C14            4.9366     0.5966    -3.4525 C.2     
  15 C15           -0.9809    -1.0551    -0.0078 C.ar    
  16 C16            4.8546     2.6457    -1.9624 C.3     
  17 C17            0.7038    -2.7480    -0.0356 C.ar    
  18 C18           -0.6338    -2.3925    -0.0218 C.ar    
  19 C19            5.6909    -0.1132    -5.9854 C.3     
  20 H20            4.1623     1.3360     0.3940 H       
  21 H21            3.9237    -0.4203     0.5572 H       
  22 H22            2.7262    -2.0870    -0.0462 H       
  23 H23           -2.0216    -0.7667     0.0034 H       
  24 H24            5.8797     2.8021    -1.6265 H       
  25 H25            4.6690     3.2447    -2.8540 H       
  26 H26            4.1642     2.9447    -1.1737 H       
  27 H27            0.9777    -3.7926    -0.0458 H       
  28 H28           -1.3997    -3.1539    -0.0215 H       
  29 H29            6.3231    -0.8780    -5.5343 H       
  30 H30            4.6851    -0.5095    -6.1254 H       
  31 H31            6.1047     0.1771    -6.9511 H       
@<TRIPOS>BOND
   1    1   11 1
   2    1   12 1
   3    2   14 1
   4    2   19 1
   5    3   12 2
   6    4    8 1
   7    4    9 1
   8    4   12 am
   9    5   10 1
  10    5   14 1
  11    5   16 1
  12    6    7 1
  13    6   10 2
  14    7   14 2
  15    8   10 1
  16    8   20 1
  17    8   21 1
  18    9   11 ar
  19    9   13 ar
  20   11   15 ar
  21   13   17 ar
  22   13   22 1
  23   15   18 ar
  24   15   23 1
  25   16   24 1
  26   16   25 1
  27   16   26 1
  28   17   18 ar
  29   17   27 1
  30   18   28 1
  31   19   29 1
  32   19   30 1
  33   19   31 1

#	End of record

#	Name: 5309330
#	Creating user name:	landrgr1
#	Creation time:	28. 01. 2015 13:52

#	Modifying user name:	landrgr1
#	Modification time:	28. 01. 2015 13:52

#	Program:	corina 3.48 0006  22.01.2010

@<TRIPOS>MOLECULE
5309330
  53   55    0    0    0
SMALL
NO_CHARGES


@<TRIPOS>ATOM
   1 S1            -0.0172     1.4168     0.0098 S.o2    
   2 O2             0.7025     1.0077    -2.6619 O.2     
   3 O3             0.0021    -0.0041     0.0020 O.2     
   4 O4             1.2133     2.1274     0.0019 O.2     
   5 O5             0.3333     0.4669     4.4590 O.3     
   6 N6            -0.9225     1.9310    -3.8573 N.am    
   7 N7             0.6008     2.3129     3.3765 N.2     
   8 C8            -0.0374     3.8419    -6.0000 C.3     
   9 C9            -0.9295     4.4954    -4.9490 C.3     
  10 C10            0.7176     2.6768    -5.5141 C.3     
  11 C11           -2.2544     3.7752    -4.8997 C.3     
  12 C12           -0.2523     1.5501    -5.0805 C.3     
  13 C13           -2.2087     2.6550    -3.8446 C.3     
  14 C14           -0.3519     1.6068    -2.6801 C.2     
  15 C15           -1.0239     1.9888    -1.3865 C.3     
  16 C16           -0.9970     1.9737     1.4312 C.3     
  17 C17           -0.3004     1.5779     2.7076 C.2     
  18 C18           -0.4714     0.4244     3.3787 C.2     
  19 C19            0.9855     1.6421     4.4367 C.2     
  20 C20           -1.3912    -0.7056     2.9936 C.3     
  21 C21            1.9704     2.1020     5.4386 C.ar    
  22 C22            2.2948     1.2900     6.5265 C.ar    
  23 C23            2.5841     3.3476     5.2977 C.ar    
  24 C24            3.8152     2.9635     7.3155 C.ar    
  25 C25            3.2147     1.7252     7.4580 C.ar    
  26 C26            3.5023     3.7708     6.2364 C.ar    
  27 C27            4.8188     3.4325     8.3372 C.3     
  28 H28           -0.6617     3.5259    -6.8357 H       
  29 H29            0.6710     4.5862    -6.3638 H       
  30 H30           -0.4464     4.4354    -3.9737 H       
  31 H31           -1.0934     5.5409    -5.2102 H       
  32 H32            1.3651     2.3090    -6.3101 H       
  33 H33            1.3300     2.9733    -4.6625 H       
  34 H34           -3.0414     4.4835    -4.6410 H       
  35 H35           -2.4672     3.3425    -5.8773 H       
  36 H36            0.3098     0.6310    -4.9153 H       
  37 H37           -0.9923     1.3867    -5.8640 H       
  38 H38           -3.0145     1.9485    -4.0434 H       
  39 H39           -2.3590     3.0922    -2.8575 H       
  40 H40           -2.0092     1.5251    -1.3382 H       
  41 H41           -1.1298     3.0726    -1.3383 H       
  42 H42           -1.1036     3.0579     1.3966 H       
  43 H43           -1.9831     1.5104     1.3967 H       
  44 H44           -1.3131    -1.5049     3.7306 H       
  45 H45           -2.4183    -0.3423     2.9591 H       
  46 H46           -1.1075    -1.0868     2.0127 H       
  47 H47            1.8265     0.3234     6.6390 H       
  48 H48            2.3410     3.9786     4.4556 H       
  49 H49            3.4664     1.0980     8.3004 H       
  50 H50            3.9779     4.7344     6.1285 H       
  51 H51            5.8177     3.1157     8.0373 H       
  52 H52            4.7875     4.5200     8.4046 H       
  53 H53            4.5771     3.0011     9.3086 H       
@<TRIPOS>BOND
   1    1    3 2
   2    1    4 2
   3    1   15 1
   4    1   16 1
   5    2   14 2
   6    5   18 1
   7    5   19 1
   8    6   12 1
   9    6   13 1
  10    6   14 am
  11    7   17 1
  12    7   19 2
  13    8    9 1
  14    8   10 1
  15    8   28 1
  16    8   29 1
  17    9   11 1
  18    9   30 1
  19    9   31 1
  20   10   12 1
  21   10   32 1
  22   10   33 1
  23   11   13 1
  24   11   34 1
  25   11   35 1
  26   12   36 1
  27   12   37 1
  28   13   38 1
  29   13   39 1
  30   14   15 1
  31   15   40 1
  32   15   41 1
  33   16   17 1
  34   16   42 1
  35   16   43 1
  36   17   18 2
  37   18   20 1
  38   19   21 1
  39   20   44 1
  40   20   45 1
  41   20   46 1
  42   21   22 ar
  43   21   23 ar
  44   22   25 ar
  45   22   47 1
  46   23   26 ar
  47   23   48 1
  48   24   25 ar
  49   24   26 ar
  50   24   27 1
  51   25   49 1
  52   26   50 1
  53   27   51 1
  54   27   52 1
  55   27   53 1

#	End of record

#	Name: 5309313
#	Creating user name:	landrgr1
#	Creation time:	28. 01. 2015 13:52

#	Modifying user name:	landrgr1
#	Modification time:	28. 01. 2015 13:52

#	Program:	corina 3.48 0006  22.01.2010

@<TRIPOS>MOLECULE
5309313
  43   45    0    0    0
SMALL
NO_CHARGES


@<TRIPOS>ATOM
   1 S1            -0.0450     1.6015    -0.0654 S.o2    
   2 O2            -4.5462     1.2422     7.6683 O.3     
   3 O3            -3.8380     3.5234     9.0969 O.3     
   4 O4            -0.1059     0.1863    -0.1784 O.2     
   5 O5             1.1768     2.3242    -0.0018 O.2     
   6 O6            -3.2507     0.8936     5.4232 O.2     
   7 N7            -3.0865     3.0225     4.8207 N.am    
   8 N8            -0.8817     2.2104    -1.3583 N.am    
   9 C9            -4.1424     2.4295     6.9775 C.3     
  10 C10           -3.1645     3.1988     7.8759 C.3     
  11 C11           -3.4614     2.0590     5.6852 C.2     
  12 C12           -0.9492     2.0240     1.3867 C.ar    
  13 C13           -4.9049     1.3862     8.9733 C.ar    
  14 C14           -2.3684     2.6870     3.6675 C.ar    
  15 C15           -4.5493     2.5245     9.6875 C.ar    
  16 C16           -1.9183     1.1644     1.8706 C.ar    
  17 C17           -0.6843     3.2118     2.0433 C.ar    
  18 C18           -2.6284     1.4924     3.0088 C.ar    
  19 C19           -1.3909     3.5457     3.1820 C.ar    
  20 C20           -5.6334     0.3825     9.5936 C.ar    
  21 C21           -4.9218     2.6485    11.0174 C.ar    
  22 C22           -0.6007     3.5649    -1.8405 C.3     
  23 C23           -1.9029     1.3945    -2.0199 C.3     
  24 C24           -6.0031     0.5132    10.9192 C.ar    
  25 C25           -5.6470     1.6437    11.6301 C.ar    
  26 H26           -5.0151     3.0486     6.7694 H       
  27 H27           -2.8483     4.1143     7.3759 H       
  28 H28           -2.2951     2.5771     8.0898 H       
  29 H29           -3.3144     3.9485     4.9978 H       
  30 H30           -2.1203     0.2356     1.3577 H       
  31 H31            0.0763     3.8790     1.6654 H       
  32 H32           -3.3878     0.8223     3.3841 H       
  33 H33           -1.1866     4.4756     3.6918 H       
  34 H34           -5.9127    -0.5020     9.0404 H       
  35 H35           -4.6447     3.5308    11.5752 H       
  36 H36            0.1820     3.5258    -2.5981 H       
  37 H37           -1.5053     3.9911    -2.2743 H       
  38 H38           -0.2697     4.1856    -1.0079 H       
  39 H39           -2.8692     1.5672    -1.5459 H       
  40 H40           -1.9607     1.6686    -3.0733 H       
  41 H41           -1.6386     0.3406    -1.9327 H       
  42 H42           -6.5708    -0.2695    11.4002 H       
  43 H43           -5.9360     1.7424    12.6660 H       
@<TRIPOS>BOND
   1    1    4 2
   2    1    5 2
   3    1    8 am
   4    1   12 1
   5    2    9 1
   6    2   13 1
   7    3   10 1
   8    3   15 1
   9    6   11 2
  10    7   11 am
  11    7   14 1
  12    7   29 1
  13    8   22 1
  14    8   23 1
  15    9   10 1
  16    9   11 1
  17    9   26 1
  18   10   27 1
  19   10   28 1
  20   12   16 ar
  21   12   17 ar
  22   13   15 ar
  23   13   20 ar
  24   14   18 ar
  25   14   19 ar
  26   15   21 ar
  27   16   18 ar
  28   16   30 1
  29   17   19 ar
  30   17   31 1
  31   18   32 1
  32   19   33 1
  33   20   24 ar
  34   20   34 1
  35   21   25 ar
  36   21   35 1
  37   22   36 1
  38   22   37 1
  39   22   38 1
  40   23   39 1
  41   23   40 1
  42   23   41 1
  43   24   25 ar
  44   24   42 1
  45   25   43 1

#	End of record

#	Name: 5309246
#	Creating user name:	landrgr1
#	Creation time:	28. 01. 2015 13:52

#	Modifying user name:	landrgr1
#	Modification time:	28. 01. 2015 13:52

#	Program:	corina 3.48 0006  22.01.2010

@<TRIPOS>MOLECULE
5309246
  52   56    0    0    0
SMALL
NO_CHARGES


@<TRIPOS>ATOM
   1 S1            -0.2692     2.8477    -0.7847 S.3     
   2 O2             0.0183    -2.1643    -2.0986 O.2     
   3 O3            -5.1994     3.1409     6.4714 O.3     
   4 N4            -1.3337     0.6026     1.1564 N.pl3   
   5 N5            -1.0581     1.2451     2.3663 N.pl3   
   6 N6            -3.2658    -0.1021     0.0206 N.2     
   7 N7            -3.2254     1.0170     2.1796 N.2     
   8 N8            -0.5332    -0.4226    -3.3663 N.am    
   9 N9             1.0972    -2.7182    -5.6508 N.ar    
  10 C10           -0.5012     0.0829     0.0657 C.3     
  11 C11           -1.2435    -0.5595    -1.0931 C.2     
  12 C12           -2.7001     0.4748     1.0697 C.2     
  13 C13            0.3241     1.2206    -0.4781 C.2     
  14 C14           -2.6077    -0.5958    -1.0171 C.2     
  15 C15           -2.2699     1.4844     2.9578 C.2     
  16 C16           -0.5563    -1.0940    -2.1979 C.2     
  17 C17            1.6162     1.1473    -0.8014 C.2     
  18 C18           -3.3858    -1.2264    -2.1431 C.3     
  19 C19           -2.4724     2.1478     4.2609 C.ar    
  20 C20            2.1645     2.3235    -1.2832 C.2     
  21 C21            1.3177     3.3518    -1.3513 C.2     
  22 C22           -3.7631     2.3344     4.7592 C.ar    
  23 C23           -1.3726     2.5862     5.0032 C.ar    
  24 C24            0.2368    -0.8997    -4.4319 C.ar    
  25 C25           -3.9447     2.9571     5.9825 C.ar    
  26 C26           -1.5660     3.2051     6.2205 C.ar    
  27 C27           -2.8458     3.3943     6.7098 C.ar    
  28 C28            0.8800    -0.0126    -5.2919 C.ar    
  29 C29            0.3719    -2.2649    -4.6478 C.ar    
  30 C30            1.6316    -0.5331    -6.3323 C.ar    
  31 C31            1.7184    -1.9049    -6.4823 C.ar    
  32 C32           -5.3130     3.7903     7.7392 C.3     
  33 H33            0.1825    -0.6564     0.4828 H       
  34 H34           -0.1836     1.4750     2.7172 H       
  35 H35            2.1911     0.2393    -0.6948 H       
  36 H36           -4.4516    -1.1788    -1.9196 H       
  37 H37           -3.1845    -0.6886    -3.0696 H       
  38 H38           -3.0841    -2.2678    -2.2546 H       
  39 H39            3.1996     2.4026    -1.5811 H       
  40 H40           -1.0507     0.3914    -3.4682 H       
  41 H41            1.5681     4.3424    -1.7012 H       
  42 H42           -4.6172     1.9946     4.1922 H       
  43 H43           -0.3719     2.4401     4.6241 H       
  44 H44           -0.7153     3.5433     6.7935 H       
  45 H45           -2.9907     3.8803     7.6633 H       
  46 H46            0.7951     1.0548    -5.1507 H       
  47 H47           -0.1225    -2.9621    -3.9877 H       
  48 H48            2.1437     0.1249    -7.0188 H       
  49 H49            2.3034    -2.3161    -7.2917 H       
  50 H50           -4.8738     4.7860     7.6780 H       
  51 H51           -6.3651     3.8735     8.0118 H       
  52 H52           -4.7869     3.2069     8.4947 H       
@<TRIPOS>BOND
   1    1   13 1
   2    1   21 1
   3    2   16 2
   4    3   25 1
   5    3   32 1
   6    4    5 1
   7    4   10 1
   8    4   12 1
   9    5   15 1
  10    5   34 1
  11    6   12 2
  12    6   14 1
  13    7   12 1
  14    7   15 2
  15    8   16 am
  16    8   24 1
  17    8   40 1
  18    9   29 ar
  19    9   31 ar
  20   10   11 1
  21   10   13 1
  22   10   33 1
  23   11   14 2
  24   11   16 1
  25   13   17 2
  26   14   18 1
  27   15   19 1
  28   17   20 1
  29   17   35 1
  30   18   36 1
  31   18   37 1
  32   18   38 1
  33   19   22 ar
  34   19   23 ar
  35   20   21 2
  36   20   39 1
  37   21   41 1
  38   22   25 ar
  39   22   42 1
  40   23   26 ar
  41   23   43 1
  42   24   28 ar
  43   24   29 ar
  44   25   27 ar
  45   26   27 ar
  46   26   44 1
  47   27   45 1
  48   28   30 ar
  49   28   46 1
  50   29   47 1
  51   30   31 ar
  52   30   48 1
  53   31   49 1
  54   32   50 1
  55   32   51 1
  56   32   52 1

#	End of record

#	Name: 5309168
#	Creating user name:	landrgr1
#	Creation time:	28. 01. 2015 13:52

#	Modifying user name:	landrgr1
#	Modification time:	28. 01. 2015 13:52

#	Program:	corina 3.48 0006  22.01.2010

@<TRIPOS>MOLECULE
5309168
  40   42    0    0    0
SMALL
NO_CHARGES


@<TRIPOS>ATOM
   1 O1            -0.0160     1.3291     0.0093 O.3     
   2 O2             3.3166    -0.5621     1.1217 O.2     
   3 O3             2.5204    -5.0166    -1.5324 O.3     
   4 O4             4.7169     1.5902     0.6382 O.3     
   5 O5             0.9551    -6.3469     0.2981 O.3     
   6 O6             2.2485     5.4505    -0.6194 O.3     
   7 C7             1.1088    -0.7323     0.2995 C.2     
   8 C8             2.3531     1.4343     0.3147 C.ar    
   9 C9             1.0700    -2.2151     0.2972 C.ar    
  10 C10            0.0021    -0.0041     0.0020 C.2     
  11 C11            2.3518    -0.0055     0.6257 C.2     
  12 C12            1.1247     2.0448     0.0023 C.ar    
  13 C13            3.5368     2.1816     0.3237 C.ar    
  14 C14            1.8245    -2.9316    -0.6299 C.ar    
  15 C15            0.2832    -2.8941     1.2260 C.ar    
  16 C16            1.1045     3.3965    -0.3123 C.ar    
  17 C17           -1.2658    -0.7373    -0.3527 C.3     
  18 C18            1.7855    -4.3146    -0.6287 C.ar    
  19 C19            3.4930     3.5279     0.0104 C.ar    
  20 C20            2.2805     4.1296    -0.3082 C.ar    
  21 C21            0.9933    -4.9875     0.2977 C.ar    
  22 C22            0.2475    -4.2739     1.2233 C.ar    
  23 C23            3.3098    -4.2613    -2.4535 C.3     
  24 C24            0.1214    -6.9723     1.2758 C.3     
  25 H25            2.4383    -2.4083    -1.3481 H       
  26 H26           -0.2984    -2.3404     1.9482 H       
  27 H27            0.1703     3.8779    -0.5611 H       
  28 H28           -2.0558    -0.0163    -0.5628 H       
  29 H29           -1.0939    -1.3551    -1.2341 H       
  30 H30           -1.5649    -1.3709     0.4823 H       
  31 H31            4.4012     4.1123     0.0131 H       
  32 H32           -0.3626    -4.7986     1.9436 H       
  33 H33            5.1884     1.2240    -0.1225 H       
  34 H34            2.1131     6.0308     0.1422 H       
  35 H35            2.6603    -3.6144    -3.0433 H       
  36 H36            4.0266    -3.6519    -1.9031 H       
  37 H37            3.8444    -4.9413    -3.1166 H       
  38 H38            0.1825    -8.0550     1.1664 H       
  39 H39            0.4560    -6.6885     2.2736 H       
  40 H40           -0.9101    -6.6503     1.1332 H       
@<TRIPOS>BOND
   1    1   10 1
   2    1   12 1
   3    2   11 2
   4    3   18 1
   5    3   23 1
   6    4   13 1
   7    4   33 1
   8    5   21 1
   9    5   24 1
  10    6   20 1
  11    6   34 1
  12    7    9 1
  13    7   10 2
  14    7   11 1
  15    8   11 1
  16    8   12 ar
  17    8   13 ar
  18    9   14 ar
  19    9   15 ar
  20   10   17 1
  21   12   16 ar
  22   13   19 ar
  23   14   18 ar
  24   14   25 1
  25   15   22 ar
  26   15   26 1
  27   16   20 ar
  28   16   27 1
  29   17   28 1
  30   17   29 1
  31   17   30 1
  32   18   21 ar
  33   19   20 ar
  34   19   31 1
  35   21   22 ar
  36   22   32 1
  37   23   35 1
  38   23   36 1
  39   23   37 1
  40   24   38 1
  41   24   39 1
  42   24   40 1

#	End of record

#	Name: 5309158
#	Creating user name:	landrgr1
#	Creation time:	28. 01. 2015 13:52

#	Modifying user name:	landrgr1
#	Modification time:	28. 01. 2015 13:52

#	Program:	corina 3.48 0006  22.01.2010

@<TRIPOS>MOLECULE
5309158
  51   54    0    0    0
SMALL
NO_CHARGES


@<TRIPOS>ATOM
   1 S1             0.1893     1.4211    -0.0985 S.3     
   2 S2             5.2805     5.4894     3.6435 S.3     
   3 O3            -1.9960    -0.3210    -0.1268 O.2     
   4 O4             3.6315     6.1825     1.6406 O.2     
   5 N5            -1.1229    -2.3583    -0.0314 N.am    
   6 N6             5.1254     4.4747     1.3664 N.am    
   7 N7             2.3757     3.1671    -0.0703 N.pl3   
   8 N8             4.0075     1.7688     0.0345 N.2     
   9 N9             2.9194     1.0851     0.0145 N.2     
  10 C10           -2.4504    -2.9772    -0.0621 C.3     
  11 C11           -2.3389    -4.3957    -0.6246 C.3     
  12 C12           -3.0192    -3.0346     1.3571 C.3     
  13 C13           -3.7253    -5.0420    -0.6567 C.3     
  14 C14           -4.4056    -3.6810     1.3250 C.3     
  15 C15           -4.2941    -5.0995     0.7625 C.3     
  16 C16           -1.0040    -1.0163    -0.0682 C.2     
  17 C17            0.3616    -0.3797    -0.0367 C.3     
  18 C18            4.7372     4.1691    -0.0128 C.3     
  19 C19            3.7365     3.0423    -0.0150 C.2     
  20 C20            6.1243     3.7531     1.9949 C.ar    
  21 C21            1.8863     1.8927    -0.0494 C.2     
  22 C22            6.3892     4.1530     3.3055 C.ar    
  23 C23            4.5219     5.4567     2.0430 C.2     
  24 C24            6.8811     2.6921     1.4752 C.ar    
  25 C25            1.6032     4.4104    -0.1326 C.3     
  26 C26            7.3599     3.5311     4.0695 C.ar    
  27 C27            7.8461     2.0769     2.2382 C.ar    
  28 C28            8.0926     2.4878     3.5366 C.ar    
  29 H29           -3.1122    -2.3862    -0.6952 H       
  30 H30           -1.9336    -4.3547    -1.6357 H       
  31 H31           -1.6770    -4.9866     0.0085 H       
  32 H32           -2.3574    -3.6256     1.9902 H       
  33 H33           -3.0986    -2.0241     1.7578 H       
  34 H34           -4.3871    -4.4511    -1.2898 H       
  35 H35           -3.6459    -6.0526    -1.0574 H       
  36 H36           -4.8109    -3.7219     2.3361 H       
  37 H37           -5.0675    -3.0900     0.6919 H       
  38 H38           -5.2818    -5.5599     0.7397 H       
  39 H39           -3.6323    -5.6904     1.3956 H       
  40 H40           -0.3295    -2.9144     0.0154 H       
  41 H41            0.9406    -0.7190    -0.8956 H       
  42 H42            0.8740    -0.6643     0.8823 H       
  43 H43            4.2906     5.0526    -0.4688 H       
  44 H44            5.6189     3.8731    -0.5813 H       
  45 H45            6.7042     2.3550     0.4645 H       
  46 H46            1.3719     4.6427    -1.1721 H       
  47 H47            0.6761     4.2906     0.4279 H       
  48 H48            2.1869     5.2229     0.3001 H       
  49 H49            7.5451     3.8606     5.0812 H       
  50 H50            8.4179     1.2622     1.8191 H       
  51 H51            8.8523     1.9982     4.1278 H       
@<TRIPOS>BOND
   1    1   17 1
   2    1   21 1
   3    2   22 1
   4    2   23 1
   5    3   16 2
   6    4   23 2
   7    5   10 1
   8    5   16 am
   9    5   40 1
  10    6   18 1
  11    6   20 1
  12    6   23 am
  13    7   19 1
  14    7   21 1
  15    7   25 1
  16    8    9 1
  17    8   19 2
  18    9   21 2
  19   10   11 1
  20   10   12 1
  21   10   29 1
  22   11   13 1
  23   11   30 1
  24   11   31 1
  25   12   14 1
  26   12   32 1
  27   12   33 1
  28   13   15 1
  29   13   34 1
  30   13   35 1
  31   14   15 1
  32   14   36 1
  33   14   37 1
  34   15   38 1
  35   15   39 1
  36   16   17 1
  37   17   41 1
  38   17   42 1
  39   18   19 1
  40   18   43 1
  41   18   44 1
  42   20   22 ar
  43   20   24 ar
  44   22   26 ar
  45   24   27 ar
  46   24   45 1
  47   25   46 1
  48   25   47 1
  49   25   48 1
  50   26   28 ar
  51   26   49 1
  52   27   28 ar
  53   27   50 1
  54   28   51 1

#	End of record

#	Name: 5309106
#	Creating user name:	landrgr1
#	Creation time:	28. 01. 2015 13:52

#	Modifying user name:	landrgr1
#	Modification time:	28. 01. 2015 13:52

#	Program:	corina 3.48 0006  22.01.2010

@<TRIPOS>MOLECULE
5309106
  36   38    0    0    0
SMALL
NO_CHARGES


@<TRIPOS>ATOM
   1 O1             2.7967    -2.2134    -0.1640 O.2     
   2 O2            -0.0088     1.2016    -0.2189 O.3     
   3 O3            -0.0075     6.4033    -0.6337 O.3     
   4 N4             0.7041    -2.8474     0.2219 N.am    
   5 N5             0.0057    -0.0034    -0.1238 N.2     
   6 C6            -0.8416    -4.6566     1.7509 C.3     
   7 C7             0.6433    -4.9266     1.4977 C.3     
   8 C8            -1.0756    -3.1484     1.8640 C.3     
   9 C9             1.0591    -4.2723     0.1763 C.3     
  10 C10           -0.6793    -2.4740     0.5469 C.3     
  11 C11            1.6311    -1.9005    -0.0242 C.2     
  12 C12            1.2283    -0.4763    -0.1242 C.2     
  13 C13            2.0896     0.6456    -0.2400 C.2     
  14 C14            1.2336     1.7099    -0.2978 C.2     
  15 C15            1.6008     3.1367    -0.4231 C.ar    
  16 C16            0.6067     4.1137    -0.4701 C.ar    
  17 C17            2.9441     3.5110    -0.4892 C.ar    
  18 C18            0.9581     5.4481    -0.5876 C.ar    
  19 C19            3.2833     4.8432    -0.6061 C.ar    
  20 C20            2.2963     5.8104    -0.6588 C.ar    
  21 H21           -1.4293    -5.0542     0.9234 H       
  22 H22           -1.1460    -5.1418     2.6783 H       
  23 H23            1.2335    -4.5075     2.3127 H       
  24 H24            0.8130    -6.0018     1.4405 H       
  25 H25           -2.1294    -2.9580     2.0676 H       
  26 H26           -0.4693    -2.7461     2.6756 H       
  27 H27            0.5356    -4.7531    -0.6501 H       
  28 H28            2.1355    -4.3766     0.0398 H       
  29 H29           -0.7500    -1.3917     0.6548 H       
  30 H30           -1.3446    -2.8081    -0.2493 H       
  31 H31            3.1690     0.6561    -0.2743 H       
  32 H32           -0.4341     3.8304    -0.4153 H       
  33 H33            3.7174     2.7582    -0.4483 H       
  34 H34            4.3228     5.1316    -0.6571 H       
  35 H35            2.5677     6.8517    -0.7511 H       
  36 H36           -0.2595     6.7500     0.2332 H       
@<TRIPOS>BOND
   1    1   11 2
   2    2    5 1
   3    2   14 1
   4    3   18 1
   5    3   36 1
   6    4    9 1
   7    4   10 1
   8    4   11 am
   9    5   12 2
  10    6    7 1
  11    6    8 1
  12    6   21 1
  13    6   22 1
  14    7    9 1
  15    7   23 1
  16    7   24 1
  17    8   10 1
  18    8   25 1
  19    8   26 1
  20    9   27 1
  21    9   28 1
  22   10   29 1
  23   10   30 1
  24   11   12 1
  25   12   13 1
  26   13   14 2
  27   13   31 1
  28   14   15 1
  29   15   16 ar
  30   15   17 ar
  31   16   18 ar
  32   16   32 1
  33   17   19 ar
  34   17   33 1
  35   18   20 ar
  36   19   20 ar
  37   19   34 1
  38   20   35 1

#	End of record

#	Name: 5309064
#	Creating user name:	landrgr1
#	Creation time:	28. 01. 2015 13:52

#	Modifying user name:	landrgr1
#	Modification time:	28. 01. 2015 13:52

#	Program:	corina 3.48 0006  22.01.2010

@<TRIPOS>MOLECULE
5309064
  54   57    0    0    0
SMALL
NO_CHARGES


@<TRIPOS>ATOM
   1 S1             0.2719     1.5123    -0.5754 S.3     
   2 F2            -0.3728     7.9492    -0.9523 F       
   3 O3            -1.8784    -4.7881     0.6228 O.3     
   4 O4            -1.9056    -0.2184    -0.8473 O.2     
   5 N5            -1.0648    -2.2588    -0.6194 N.am    
   6 N6             2.4519     3.2491    -0.3033 N.pl3   
   7 N7             6.4249     4.1218    -1.9405 N.pl3   
   8 N8             4.0484     1.8410     0.0184 N.2     
   9 N9             2.9658     1.1636    -0.1254 N.2     
  10 C10           -2.2554    -4.3930    -0.7142 C.3     
  11 C11           -3.6271    -5.0626    -0.9516 C.3     
  12 C12           -3.6329    -6.2623     0.0220 C.3     
  13 C13           -2.2639    -6.1756     0.7325 C.3     
  14 C14           -2.3829    -2.8710    -0.8038 C.3     
  15 C15           -0.9330    -0.9180    -0.6590 C.2     
  16 C16            4.7991     4.2355     0.0301 C.3     
  17 C17            3.7966     3.1158    -0.0803 C.2     
  18 C18            5.2964     4.6017    -1.3446 C.2     
  19 C19            0.4229    -0.2883    -0.4693 C.3     
  20 C20            1.9535     1.9755    -0.3257 C.2     
  21 C21            1.7340     4.4436    -0.4682 C.ar    
  22 C22            4.7023     5.4611    -2.1972 C.2     
  23 C23            6.5401     4.6843    -3.1771 C.2     
  24 C24            5.4929     5.5136    -3.3622 C.2     
  25 C25            7.3621     3.1646    -1.3475 C.3     
  26 C26            1.1466     4.7380    -1.6908 C.ar    
  27 C27            1.6057     5.3293     0.5928 C.ar    
  28 C28            0.4401     5.9139    -1.8513 C.ar    
  29 C29            0.8985     6.5042     0.4288 C.ar    
  30 C30            0.3179     6.7990    -0.7934 C.ar    
  31 H31           -1.5254    -4.7567    -1.4374 H       
  32 H32           -4.4357    -4.3721    -0.7118 H       
  33 H33           -3.7108    -5.4069    -1.9824 H       
  34 H34           -4.4443    -6.1649     0.7432 H       
  35 H35           -3.7194    -7.1997    -0.5274 H       
  36 H36           -1.5352    -6.8127     0.2312 H       
  37 H37           -2.3614    -6.4607     1.7801 H       
  38 H38           -3.0600    -2.5167    -0.0265 H       
  39 H39           -2.7774    -2.5964    -1.7821 H       
  40 H40           -0.2870    -2.8183    -0.4688 H       
  41 H41            4.3253     5.1036     0.4882 H       
  42 H42            5.6384     3.9124     0.6459 H       
  43 H43            1.1000    -0.6425    -1.2466 H       
  44 H44            0.8174    -0.5628     0.5090 H       
  45 H45            3.7884     6.0085    -2.0197 H       
  46 H46            7.3330     4.4977    -3.8862 H       
  47 H47            5.2962     6.1082    -4.2421 H       
  48 H48            7.1012     2.1554    -1.6664 H       
  49 H49            8.3754     3.3982    -1.6742 H       
  50 H50            7.3071     3.2278    -0.2607 H       
  51 H51            1.2423     4.0482    -2.5163 H       
  52 H52            2.0584     5.0996     1.5461 H       
  53 H53           -0.0171     6.1433    -2.8025 H       
  54 H54            0.7981     7.1934     1.2542 H       
@<TRIPOS>BOND
   1    1   19 1
   2    1   20 1
   3    2   30 1
   4    3   10 1
   5    3   13 1
   6    4   15 2
   7    5   14 1
   8    5   15 am
   9    5   40 1
  10    6   17 1
  11    6   20 1
  12    6   21 1
  13    7   18 1
  14    7   23 1
  15    7   25 1
  16    8    9 1
  17    8   17 2
  18    9   20 2
  19   10   11 1
  20   10   14 1
  21   10   31 1
  22   11   12 1
  23   11   32 1
  24   11   33 1
  25   12   13 1
  26   12   34 1
  27   12   35 1
  28   13   36 1
  29   13   37 1
  30   14   38 1
  31   14   39 1
  32   15   19 1
  33   16   17 1
  34   16   18 1
  35   16   41 1
  36   16   42 1
  37   18   22 2
  38   19   43 1
  39   19   44 1
  40   21   26 ar
  41   21   27 ar
  42   22   24 1
  43   22   45 1
  44   23   24 2
  45   23   46 1
  46   24   47 1
  47   25   48 1
  48   25   49 1
  49   25   50 1
  50   26   28 ar
  51   26   51 1
  52   27   29 ar
  53   27   52 1
  54   28   30 ar
  55   28   53 1
  56   29   30 ar
  57   29   54 1

#	End of record

#	Name: 5308916
#	Creating user name:	landrgr1
#	Creation time:	28. 01. 2015 13:52

#	Modifying user name:	landrgr1
#	Modification time:	28. 01. 2015 13:52

#	Program:	corina 3.48 0006  22.01.2010

@<TRIPOS>MOLECULE
5308916
  45   48    0    0    0
SMALL
NO_CHARGES


@<TRIPOS>ATOM
   1 Cl1            9.4039     2.0178   -11.4004 Cl      
   2 S2            -0.0317     2.0441    -0.1562 S.3     
   3 S3             5.4483     1.6536    -5.2850 S.3     
   4 O4             2.1010     3.6286    -0.5473 O.2     
   5 O5             6.2904     1.4136    -7.9392 O.2     
   6 N6             2.3803     1.3952    -0.1507 N.am    
   7 N7             4.6053     1.8964    -2.6279 N.pl3   
   8 N8             4.4291    -0.1740    -2.0697 N.2     
   9 N9             4.8178    -0.1405    -3.2943 N.2     
  10 N10            6.4130    -0.7686    -8.3202 N.am    
  11 C11            3.8433     1.4218    -0.2241 C.3     
  12 C12            1.7076     0.2124     0.0983 C.ar    
  13 C13            4.2836     1.0377    -1.6132 C.2     
  14 C14            0.3181     0.3358     0.1412 C.ar    
  15 C15            1.6685     2.5132    -0.3226 C.2     
  16 C16            2.2521    -1.0635     0.3076 C.ar    
  17 C17            4.9424     1.1056    -3.6887 C.2     
  18 C18           -0.4980    -0.7550     0.3801 C.ar    
  19 C19            4.5860     3.3607    -2.5871 C.3     
  20 C20            1.4368    -2.1458     0.5444 C.ar    
  21 C21            0.0608    -2.0023     0.5830 C.ar    
  22 C22            5.7074     0.0573    -6.0979 C.3     
  23 C23            6.1577     0.2840    -7.5180 C.2     
  24 C24            6.9337    -0.5611    -9.6022 C.ar    
  25 C25            7.8033     0.4953    -9.8371 C.ar    
  26 C26            6.5862    -1.4151   -10.6411 C.ar    
  27 C27            8.3164     0.6972   -11.1049 C.ar    
  28 C28            7.1018    -1.2085   -11.9054 C.ar    
  29 C29            7.9633    -0.1523   -12.1386 C.ar    
  30 H30            4.2004     2.4257     0.0057 H       
  31 H31            4.2561     0.7156     0.4962 H       
  32 H32            3.3234    -1.1977     0.2817 H       
  33 H33           -1.5706    -0.6319     0.4084 H       
  34 H34            5.5848     3.7309    -2.3558 H       
  35 H35            4.2707     3.7470    -3.5563 H       
  36 H36            3.8882     3.6936    -1.8187 H       
  37 H37            1.8761    -3.1195     0.7034 H       
  38 H38           -0.5709    -2.8581     0.7703 H       
  39 H39            6.4709    -0.5046    -5.5599 H       
  40 H40            4.7743    -0.5060    -6.0981 H       
  41 H41            6.2358    -1.6700    -8.0087 H       
  42 H42            8.0784     1.1588    -9.0305 H       
  43 H43            5.9134    -2.2403   -10.4601 H       
  44 H44            6.8318    -1.8727   -12.7131 H       
  45 H45            8.3649     0.0073   -13.1284 H       
@<TRIPOS>BOND
   1    1   27 1
   2    2   14 1
   3    2   15 1
   4    3   17 1
   5    3   22 1
   6    4   15 2
   7    5   23 2
   8    6   11 1
   9    6   12 1
  10    6   15 am
  11    7   13 1
  12    7   17 1
  13    7   19 1
  14    8    9 1
  15    8   13 2
  16    9   17 2
  17   10   23 am
  18   10   24 1
  19   10   41 1
  20   11   13 1
  21   11   30 1
  22   11   31 1
  23   12   14 ar
  24   12   16 ar
  25   14   18 ar
  26   16   20 ar
  27   16   32 1
  28   18   21 ar
  29   18   33 1
  30   19   34 1
  31   19   35 1
  32   19   36 1
  33   20   21 ar
  34   20   37 1
  35   21   38 1
  36   22   23 1
  37   22   39 1
  38   22   40 1
  39   24   25 ar
  40   24   26 ar
  41   25   27 ar
  42   25   42 1
  43   26   28 ar
  44   26   43 1
  45   27   29 ar
  46   28   29 ar
  47   28   44 1
  48   29   45 1

#	End of record

#	Name: 5308889
#	Creating user name:	landrgr1
#	Creation time:	28. 01. 2015 13:52

#	Modifying user name:	landrgr1
#	Modification time:	28. 01. 2015 13:52

#	Program:	corina 3.48 0006  22.01.2010

@<TRIPOS>MOLECULE
5308889
  42   44    0    0    0
SMALL
NO_CHARGES


@<TRIPOS>ATOM
   1 F1             2.4036    -5.9229    -0.8114 F       
   2 O2            -0.0171     1.4097     0.0098 O.3     
   3 O3             1.1482     1.8251     2.3501 O.2     
   4 N4             3.0930     2.5856     1.6007 N.am    
   5 N5             5.8501     2.6098     2.0045 N.3     
   6 N6             0.0021    -0.0041     0.0020 N.2     
   7 C7             3.6048     2.8133     2.9607 C.3     
   8 C8             3.9695     2.9076     0.4644 C.3     
   9 C9             4.9743     2.1371     3.0850 C.3     
  10 C10            5.3247     2.2277     0.6870 C.3     
  11 C11            1.8557     2.0898     1.4012 C.2     
  12 C12            1.3514     1.8643    -0.0008 C.3     
  13 C13            7.2226     2.1188     2.1865 C.3     
  14 C14            2.0755     0.6685    -0.6643 C.3     
  15 C15            1.1399    -0.4884    -0.3692 C.2     
  16 C16            8.0415     2.4160     0.9288 C.3     
  17 C17            1.4732    -1.9215    -0.4855 C.ar    
  18 C18            0.5150    -2.8908    -0.1816 C.ar    
  19 C19            2.7462    -2.3130    -0.9055 C.ar    
  20 C20            0.8318    -4.2281    -0.2926 C.ar    
  21 C21            3.0519    -3.6532    -1.0129 C.ar    
  22 C22            2.0985    -4.6111    -0.7049 C.ar    
  23 H23            3.7074     3.8837     3.1388 H       
  24 H24            2.9164     2.3826     3.6879 H       
  25 H25            3.5223     2.5392    -0.4589 H       
  26 H26            4.1072     3.9871     0.4026 H       
  27 H27            4.8545     1.0564     3.0096 H       
  28 H28            5.4177     2.3880     4.0486 H       
  29 H29            6.0221     2.5442    -0.0885 H       
  30 H30            5.2000     1.1456     0.6450 H       
  31 H31            1.4577     2.7676    -0.6015 H       
  32 H32            7.6767     2.6184     3.0422 H       
  33 H33            7.2035     1.0432     2.3618 H       
  34 H34            2.1729     0.8230    -1.7389 H       
  35 H35            3.0507     0.5041    -0.2059 H       
  36 H36            9.0600     2.0518     1.0638 H       
  37 H37            7.5874     1.9164     0.0730 H       
  38 H38            8.0607     3.4917     0.7534 H       
  39 H39           -0.4722    -2.5935     0.1400 H       
  40 H40            3.4896    -1.5675    -1.1461 H       
  41 H41            0.0916    -4.9786    -0.0575 H       
  42 H42            4.0359    -3.9572    -1.3379 H       
@<TRIPOS>BOND
   1    1   22 1
   2    2    6 1
   3    2   12 1
   4    3   11 2
   5    4    7 1
   6    4    8 1
   7    4   11 am
   8    5    9 1
   9    5   10 1
  10    5   13 1
  11    6   15 2
  12    7    9 1
  13    7   23 1
  14    7   24 1
  15    8   10 1
  16    8   25 1
  17    8   26 1
  18    9   27 1
  19    9   28 1
  20   10   29 1
  21   10   30 1
  22   11   12 1
  23   12   14 1
  24   12   31 1
  25   13   16 1
  26   13   32 1
  27   13   33 1
  28   14   15 1
  29   14   34 1
  30   14   35 1
  31   15   17 1
  32   16   36 1
  33   16   37 1
  34   16   38 1
  35   17   18 ar
  36   17   19 ar
  37   18   20 ar
  38   18   39 1
  39   19   21 ar
  40   19   40 1
  41   20   22 ar
  42   20   41 1
  43   21   22 ar
  44   21   42 1

#	End of record

#	Name: 5308798
#	Creating user name:	landrgr1
#	Creation time:	28. 01. 2015 13:52

#	Modifying user name:	landrgr1
#	Modification time:	28. 01. 2015 13:52

#	Program:	corina 3.48 0006  22.01.2010

@<TRIPOS>MOLECULE
5308798
  43   46    0    0    0
SMALL
NO_CHARGES


@<TRIPOS>ATOM
   1 Cl1           -0.8613    -2.7701     4.1253 Cl      
   2 O2            -0.0164     1.3548     0.0095 O.3     
   3 N3            -2.3575    -4.0251    -0.8822 N.pl3   
   4 N4            -1.7086    -5.5605     0.8024 N.2     
   5 N5            -2.5712    -4.1204    -2.2549 N.pl3   
   6 N6            -2.0515    -6.1151    -1.5039 N.2     
   7 N7            -2.5075    -5.9636    -3.8413 N.pl3   
   8 C8            -2.4615    -2.8694     0.0102 C.3     
   9 C9            -2.7393    -3.4091     1.4225 C.3     
  10 C10           -1.6961    -4.4681     1.7814 C.3     
  11 C11           -1.1679    -2.0963     0.0015 C.ar    
  12 C12           -2.0121    -5.2971    -0.4445 C.2     
  13 C13           -2.0021    -5.0231     3.1486 C.ar    
  14 C14           -1.1893    -0.7153     0.0096 C.ar    
  15 C15            0.0396    -2.7702    -0.0092 C.ar    
  16 C16           -2.3794    -5.4370    -2.5865 C.2     
  17 C17           -1.6527    -4.3074     4.2801 C.ar    
  18 C18           -2.6368    -6.2444     3.2725 C.ar    
  19 C19            0.0021    -0.0041     0.0020 C.ar    
  20 C20            1.2280    -2.0639    -0.0164 C.ar    
  21 C21            1.2119    -0.6824    -0.0136 C.ar    
  22 C22           -1.9340    -4.8176     5.5348 C.ar    
  23 C23           -2.9181    -6.7536     4.5268 C.ar    
  24 C24           -2.5638    -6.0420     5.6575 C.ar    
  25 C25            1.2479     2.0208     0.0010 C.3     
  26 H26           -3.2815    -2.2263    -0.3093 H       
  27 H27           -2.6875    -2.5906     2.1405 H       
  28 H28           -3.7336    -3.8546     1.4517 H       
  29 H29           -0.7077    -4.0086     1.7941 H       
  30 H30           -2.8091    -3.3984    -2.8574 H       
  31 H31           -2.1326    -0.1894     0.0214 H       
  32 H32            0.0543    -3.8501    -0.0114 H       
  33 H33           -2.9136    -6.8011     2.3893 H       
  34 H34            2.1698    -2.5925    -0.0247 H       
  35 H35            2.1406    -0.1310    -0.0196 H       
  36 H36           -1.6612    -4.2595     6.4183 H       
  37 H37           -3.4148    -7.7078     4.6231 H       
  38 H38           -2.7528    -5.3910    -4.5848 H       
  39 H39           -2.3530    -6.9099    -3.9882 H       
  40 H40           -2.7834    -6.4404     6.6370 H       
  41 H41            1.8173     1.7308     0.8840 H       
  42 H42            1.8003     1.7403    -0.8958 H       
  43 H43            1.0905     3.0993     0.0083 H       
@<TRIPOS>BOND
   1    1   17 1
   2    2   19 1
   3    2   25 1
   4    3    5 1
   5    3    8 1
   6    3   12 1
   7    4   10 1
   8    4   12 2
   9    5   16 1
  10    5   30 1
  11    6   12 1
  12    6   16 2
  13    7   16 1
  14    7   38 1
  15    7   39 1
  16    8    9 1
  17    8   11 1
  18    8   26 1
  19    9   10 1
  20    9   27 1
  21    9   28 1
  22   10   13 1
  23   10   29 1
  24   11   14 ar
  25   11   15 ar
  26   13   17 ar
  27   13   18 ar
  28   14   19 ar
  29   14   31 1
  30   15   20 ar
  31   15   32 1
  32   17   22 ar
  33   18   23 ar
  34   18   33 1
  35   19   21 ar
  36   20   21 ar
  37   20   34 1
  38   21   35 1
  39   22   24 ar
  40   22   36 1
  41   23   24 ar
  42   23   37 1
  43   24   40 1
  44   25   41 1
  45   25   42 1
  46   25   43 1

#	End of record

#	Name: 5308716
#	Creating user name:	landrgr1
#	Creation time:	28. 01. 2015 13:52

#	Modifying user name:	landrgr1
#	Modification time:	28. 01. 2015 13:52

#	Program:	corina 3.48 0006  22.01.2010

@<TRIPOS>MOLECULE
5308716
  41   44    0    0    0
SMALL
NO_CHARGES


@<TRIPOS>ATOM
   1 S1             0.0655     1.5600     0.2084 S.3     
   2 O2            -2.6054    -3.1109    -0.4574 O.3     
   3 O3             6.0563     3.6137    -0.5207 O.2     
   4 N4             4.5564     4.9436     0.4362 N.am    
   5 N5            -0.9236    -1.0357     0.4103 N.3     
   6 N6             1.3954    -0.5729     0.3405 N.2     
   7 C7             4.5165     7.2789     1.0961 C.3     
   8 C8             3.4481     6.4875     1.8958 C.3     
   9 C9             5.3791     6.1615     0.4723 C.3     
  10 C10            3.2231     5.2575     0.9814 C.3     
  11 C11            4.9534     3.7409    -0.0244 C.2     
  12 C12           -0.4942    -2.4386     0.5041 C.3     
  13 C13           -1.8246    -0.8422    -0.7352 C.3     
  14 C14            4.0503     2.5791     0.0733 C.ar    
  15 C15           -1.7267    -3.3353     0.6484 C.3     
  16 C16           -3.0437    -1.7550    -0.5785 C.3     
  17 C17            0.1624    -0.1910     0.3325 C.2     
  18 C18            1.8239     1.6677     0.1730 C.ar    
  19 C19            2.3485     0.3714     0.2577 C.ar    
  20 C20            2.6693     2.7643     0.0814 C.ar    
  21 C21            4.5767     1.2827     0.1571 C.ar    
  22 C22            3.7532     0.2078     0.2472 C.ar    
  23 H23            4.0477     7.8832     0.3195 H       
  24 H24            5.1143     7.9011     1.7622 H       
  25 H25            3.8335     6.1852     2.8696 H       
  26 H26            2.5315     7.0675     2.0031 H       
  27 H27            6.2653     5.9922     1.0840 H       
  28 H28            5.6724     6.4409    -0.5396 H       
  29 H29            2.5324     5.5052     0.1755 H       
  30 H30            2.8435     4.4172     1.5626 H       
  31 H31            0.0521    -2.7132    -0.3983 H       
  32 H32            0.1512    -2.5643     1.3735 H       
  33 H33           -2.1504     0.1973    -0.7705 H       
  34 H34           -1.2996    -1.0913    -1.6574 H       
  35 H35           -2.2434    -3.0970     1.5781 H       
  36 H36           -1.4170    -4.3803     0.6609 H       
  37 H37           -3.6866    -1.6570    -1.4533 H       
  38 H38           -3.5987    -1.4707     0.3155 H       
  39 H39            2.2572     3.7605     0.0168 H       
  40 H40            5.6469     1.1381     0.1503 H       
  41 H41            4.1755    -0.7841     0.3121 H       
@<TRIPOS>BOND
   1    1   17 1
   2    1   18 1
   3    2   15 1
   4    2   16 1
   5    3   11 2
   6    4    9 1
   7    4   10 1
   8    4   11 am
   9    5   12 1
  10    5   13 1
  11    5   17 1
  12    6   17 2
  13    6   19 1
  14    7    8 1
  15    7    9 1
  16    7   23 1
  17    7   24 1
  18    8   10 1
  19    8   25 1
  20    8   26 1
  21    9   27 1
  22    9   28 1
  23   10   29 1
  24   10   30 1
  25   11   14 1
  26   12   15 1
  27   12   31 1
  28   12   32 1
  29   13   16 1
  30   13   33 1
  31   13   34 1
  32   14   20 ar
  33   14   21 ar
  34   15   35 1
  35   15   36 1
  36   16   37 1
  37   16   38 1
  38   18   19 ar
  39   18   20 ar
  40   19   22 ar
  41   20   39 1
  42   21   22 ar
  43   21   40 1
  44   22   41 1

#	End of record

#	Name: 5308640
#	Creating user name:	landrgr1
#	Creation time:	28. 01. 2015 13:52

#	Modifying user name:	landrgr1
#	Modification time:	28. 01. 2015 13:52

#	Program:	corina 3.48 0006  22.01.2010

@<TRIPOS>MOLECULE
5308640
  35   37    0    0    0
SMALL
NO_CHARGES


@<TRIPOS>ATOM
   1 O1            -0.0173     1.4250     0.0099 O.3     
   2 O2            -1.6752     0.5038    -1.9892 O.2     
   3 O3             0.8229    -1.5411     1.5978 O.2     
   4 N4            -0.5867    -0.4448    -3.6736 N.am    
   5 N5             2.1399     0.2094     1.2249 N.am    
   6 C6            -1.5600    -0.1293    -4.7294 C.3     
   7 C7             0.5402    -1.1815    -4.2744 C.3     
   8 C8            -1.0174    -0.7249    -6.0456 C.3     
   9 C9            -0.0467    -1.8304    -5.5527 C.3     
  10 C10           -0.7025    -0.1107    -2.3731 C.2     
  11 C11            0.3764    -0.5005    -1.3959 C.3     
  12 C12            0.0021    -0.0041     0.0020 C.3     
  13 C13            1.0161    -0.5035     1.0001 C.2     
  14 C14            1.1856     2.0596     0.0018 C.ar    
  15 C15            2.2839     1.4659     0.6209 C.ar    
  16 C16            1.3241     3.2915    -0.6139 C.ar    
  17 C17            3.5066     2.1169     0.6331 C.ar    
  18 C18            2.5492     3.9340    -0.6031 C.ar    
  19 C19            3.6359     3.3503     0.0208 C.ar    
  20 H20           -2.5247    -0.5768    -4.4899 H       
  21 H21           -1.6642     0.9513    -4.8267 H       
  22 H22            1.3469    -0.4957    -4.5331 H       
  23 H23            0.8993    -1.9498    -3.5896 H       
  24 H24           -1.8259    -1.1566    -6.6357 H       
  25 H25           -0.4814     0.0314    -6.6190 H       
  26 H26            0.7347    -2.0206    -6.2884 H       
  27 H27           -0.5869    -2.7463    -5.3132 H       
  28 H28            0.4783    -1.5856    -1.3810 H       
  29 H29            1.3217    -0.0510    -1.7001 H       
  30 H30           -0.9850    -0.3817     0.2688 H       
  31 H31            2.8390    -0.1434     1.7974 H       
  32 H32            0.4771     3.7502    -1.1023 H       
  33 H33            4.3569     1.6625     1.1199 H       
  34 H34            2.6570     4.8950    -1.0839 H       
  35 H35            4.5885     3.8590     0.0305 H       
@<TRIPOS>BOND
   1    1   12 1
   2    1   14 1
   3    2   10 2
   4    3   13 2
   5    4    6 1
   6    4    7 1
   7    4   10 am
   8    5   13 am
   9    5   15 1
  10    5   31 1
  11    6    8 1
  12    6   20 1
  13    6   21 1
  14    7    9 1
  15    7   22 1
  16    7   23 1
  17    8    9 1
  18    8   24 1
  19    8   25 1
  20    9   26 1
  21    9   27 1
  22   10   11 1
  23   11   12 1
  24   11   28 1
  25   11   29 1
  26   12   13 1
  27   12   30 1
  28   14   15 ar
  29   14   16 ar
  30   15   17 ar
  31   16   18 ar
  32   16   32 1
  33   17   19 ar
  34   17   33 1
  35   18   19 ar
  36   18   34 1
  37   19   35 1

#	End of record

#	Name: 5308455
#	Creating user name:	landrgr1
#	Creation time:	28. 01. 2015 13:52

#	Modifying user name:	landrgr1
#	Modification time:	28. 01. 2015 13:52

#	Program:	corina 3.48 0006  22.01.2010

@<TRIPOS>MOLECULE
5308455
  47   50    0    0    0
SMALL
NO_CHARGES


@<TRIPOS>ATOM
   1 S1            -0.0172     1.4168     0.0098 S.o2    
   2 S2            -0.7884     3.4422     2.2624 S.3     
   3 O3             0.0021    -0.0041     0.0020 O.2     
   4 O4             1.1617     2.2101     0.0028 O.2     
   5 O5            -0.8384     5.5647    -3.1350 O.2     
   6 O6            -6.4554    10.3325    -1.9566 O.3     
   7 O7            -7.8117     9.9364    -3.7271 O.3     
   8 N8            -0.9002     1.8797    -1.3124 N.am    
   9 N9            -3.0029     6.0036    -2.9238 N.am    
  10 C10           -2.0742     3.9057    -1.9991 C.3     
  11 C11           -3.0535     3.0078    -2.7585 C.3     
  12 C12           -0.7128     3.2090    -1.9097 C.3     
  13 C13           -3.2322     1.6841    -2.0036 C.3     
  14 C14           -1.8816     0.9668    -1.9142 C.3     
  15 C15           -1.9263     5.2171    -2.7267 C.2     
  16 C16           -0.9297     1.8941     1.4396 C.2     
  17 C17           -2.8591     7.2784    -3.6312 C.3     
  18 C18           -1.8338     1.1371     2.0630 C.2     
  19 C19           -4.2008     7.9591    -3.7175 C.ar    
  20 C20           -2.4250     1.7252     3.1678 C.2     
  21 C21           -4.6011     8.8241    -2.7162 C.ar    
  22 C22           -2.0010     2.9599     3.4417 C.2     
  23 C23           -5.0285     7.7176    -4.7982 C.ar    
  24 C24           -5.8338     9.4516    -2.7938 C.ar    
  25 C25           -6.6677     9.2082    -3.8824 C.ar    
  26 C26           -6.2599     8.3401    -4.8823 C.ar    
  27 C27           -7.4984    10.9391    -2.7423 C.3     
  28 H28           -2.4527     4.0879    -0.9933 H       
  29 H29           -4.0161     3.5118    -2.8450 H       
  30 H30           -2.6605     2.8026    -3.7543 H       
  31 H31           -0.0409     3.7984    -1.2859 H       
  32 H32           -0.2896     3.1043    -2.9087 H       
  33 H33           -3.6006     1.8858    -0.9977 H       
  34 H34           -3.9479     1.0562    -2.5344 H       
  35 H35           -1.5517     0.6830    -2.9136 H       
  36 H36           -1.9810     0.0764    -1.2934 H       
  37 H37           -3.8729     5.7256    -2.5972 H       
  38 H38           -2.1615     7.9176    -3.0899 H       
  39 H39           -2.4792     7.0954    -4.6363 H       
  40 H40           -2.0857     0.1408     1.7307 H       
  41 H41           -3.1731     1.2226     3.7629 H       
  42 H42           -3.9524     9.0110    -1.8732 H       
  43 H43           -4.7123     7.0412    -5.5786 H       
  44 H44           -2.3488     3.5700     4.2622 H       
  45 H45           -6.9044     8.1498    -5.7277 H       
  46 H46           -8.3695    11.1528    -2.1228 H       
  47 H47           -7.1366    11.8480    -3.2228 H       
@<TRIPOS>BOND
   1    1    3 2
   2    1    4 2
   3    1    8 am
   4    1   16 1
   5    2   16 1
   6    2   22 1
   7    5   15 2
   8    6   24 1
   9    6   27 1
  10    7   25 1
  11    7   27 1
  12    8   12 1
  13    8   14 1
  14    9   15 am
  15    9   17 1
  16    9   37 1
  17   10   11 1
  18   10   12 1
  19   10   15 1
  20   10   28 1
  21   11   13 1
  22   11   29 1
  23   11   30 1
  24   12   31 1
  25   12   32 1
  26   13   14 1
  27   13   33 1
  28   13   34 1
  29   14   35 1
  30   14   36 1
  31   16   18 2
  32   17   19 1
  33   17   38 1
  34   17   39 1
  35   18   20 1
  36   18   40 1
  37   19   21 ar
  38   19   23 ar
  39   20   22 2
  40   20   41 1
  41   21   24 ar
  42   21   42 1
  43   22   44 1
  44   23   26 ar
  45   23   43 1
  46   24   25 ar
  47   25   26 ar
  48   26   45 1
  49   27   46 1
  50   27   47 1

#	End of record

#	Name: 5308237
#	Creating user name:	landrgr1
#	Creation time:	28. 01. 2015 13:52

#	Modifying user name:	landrgr1
#	Modification time:	28. 01. 2015 13:52

#	Program:	corina 3.48 0006  22.01.2010

@<TRIPOS>MOLECULE
5308237
  55   58    0    0    0
SMALL
NO_CHARGES


@<TRIPOS>ATOM
   1 F1           -13.2598    -8.3943    -1.7755 F       
   2 O2            -7.9189    -6.4854     0.2200 O.2     
   3 O3             1.3941    -0.1720    -0.5957 O.3     
   4 N4            -4.1102    -4.5140    -1.1023 N.pl3   
   5 N5            -2.7876    -4.6314    -1.5362 N.pl3   
   6 N6            -3.0047    -2.7117    -0.5437 N.2     
   7 N7            -5.3637    -2.8921     0.0412 N.2     
   8 N8            -8.7395    -5.2475    -1.4350 N.am    
   9 C9            -5.2926    -5.3787    -1.1783 C.3     
  10 C10           -6.5626    -4.8287    -0.5524 C.2     
  11 C11           -5.5714    -5.6667    -2.6310 C.ar    
  12 C12           -4.2175    -3.2937    -0.4802 C.2     
  13 C13           -2.1604    -3.4896    -1.1691 C.2     
  14 C14           -6.4902    -3.5901     0.0195 C.2     
  15 C15           -0.7109    -3.1702    -1.4294 C.3     
  16 C16           -5.8967    -6.9495    -3.0314 C.ar    
  17 C17           -7.7627    -5.5634    -0.5617 C.2     
  18 C18           -5.5075    -4.6474    -3.5623 C.ar    
  19 C19           -0.3834    -1.7876    -0.8617 C.3     
  20 C20           -7.7249    -3.0054     0.6556 C.3     
  21 C21           -6.1523    -7.2137    -4.3637 C.ar    
  22 C22           -5.7633    -4.9117    -4.8950 C.ar    
  23 C23           -6.0832    -6.1951    -5.2960 C.ar    
  24 C24            1.0883    -1.4633    -1.1259 C.3     
  25 C25           -6.5059    -8.6121    -4.8002 C.3     
  26 C26           -9.8859    -6.0455    -1.5213 C.ar    
  27 C27          -10.4837    -6.2728    -2.7540 C.ar    
  28 C28          -10.4239    -6.6160    -0.3752 C.ar    
  29 C29          -11.6147    -7.0610    -2.8370 C.ar    
  30 C30          -11.5551    -7.4036    -0.4627 C.ar    
  31 C31          -12.1529    -7.6242    -1.6922 C.ar    
  32 H32           -5.0546    -6.3235    -0.6897 H       
  33 H33           -2.3957    -5.3833    -2.0074 H       
  34 H34           -0.0817    -3.9189    -0.9480 H       
  35 H35           -0.5248    -3.1753    -2.5034 H       
  36 H36           -5.9506    -7.7451    -2.3030 H       
  37 H37           -5.2581    -3.6445    -3.2488 H       
  38 H38           -1.0126    -1.0389    -1.3430 H       
  39 H39           -0.5694    -1.7825     0.2123 H       
  40 H40           -7.4908    -2.0243     1.0688 H       
  41 H41           -8.5082    -2.9057    -0.0958 H       
  42 H42           -8.0687    -3.6632     1.4538 H       
  43 H43           -5.7137    -4.1152    -5.6227 H       
  44 H44           -6.2827    -6.4016    -6.3372 H       
  45 H45           -8.6479    -4.4670    -2.0037 H       
  46 H46            1.2743    -1.4684    -2.1999 H       
  47 H47            1.7174    -2.2120    -0.6446 H       
  48 H48           -7.5869    -8.7444    -4.7550 H       
  49 H49           -6.1628    -8.7712    -5.8225 H       
  50 H50           -6.0237    -9.3320    -4.1389 H       
  51 H51          -10.0647    -5.8331    -3.6471 H       
  52 H52           -9.9580    -6.4441     0.5838 H       
  53 H53            2.3127     0.0998    -0.7275 H       
  54 H54          -12.0799    -7.2380    -3.7955 H       
  55 H55          -11.9738    -7.8474     0.4283 H       
@<TRIPOS>BOND
   1    1   31 1
   2    2   17 2
   3    3   24 1
   4    3   53 1
   5    4    5 1
   6    4    9 1
   7    4   12 1
   8    5   13 1
   9    5   33 1
  10    6   12 1
  11    6   13 2
  12    7   12 2
  13    7   14 1
  14    8   17 am
  15    8   26 1
  16    8   45 1
  17    9   10 1
  18    9   11 1
  19    9   32 1
  20   10   14 2
  21   10   17 1
  22   11   16 ar
  23   11   18 ar
  24   13   15 1
  25   14   20 1
  26   15   19 1
  27   15   34 1
  28   15   35 1
  29   16   21 ar
  30   16   36 1
  31   18   22 ar
  32   18   37 1
  33   19   24 1
  34   19   38 1
  35   19   39 1
  36   20   40 1
  37   20   41 1
  38   20   42 1
  39   21   23 ar
  40   21   25 1
  41   22   23 ar
  42   22   43 1
  43   23   44 1
  44   24   46 1
  45   24   47 1
  46   25   48 1
  47   25   49 1
  48   25   50 1
  49   26   27 ar
  50   26   28 ar
  51   27   29 ar
  52   27   51 1
  53   28   30 ar
  54   28   52 1
  55   29   31 ar
  56   29   54 1
  57   30   31 ar
  58   30   55 1

#	End of record

#	Name: 5307861
#	Creating user name:	landrgr1
#	Creation time:	28. 01. 2015 13:52

#	Modifying user name:	landrgr1
#	Modification time:	28. 01. 2015 13:52

#	Program:	corina 3.48 0006  22.01.2010

@<TRIPOS>MOLECULE
5307861
  55   57    0    0    0
SMALL
NO_CHARGES


@<TRIPOS>ATOM
   1 O1             1.4424    -3.7591    -1.2988 O.2     
   2 O2            -3.2958    -0.3185    -2.7121 O.3     
   3 N3             7.5467    -5.7999    -2.1369 N.3     
   4 N4             8.6384    -4.4188    -4.3743 N.3     
   5 N5             1.5145    -5.7234    -0.2645 N.am    
   6 N6            -0.4818    -4.5384    -0.5090 N.am    
   7 C7             8.9988    -5.6183    -2.2708 C.3     
   8 C8             6.8198    -4.6832    -2.7568 C.3     
   9 C9             9.3653    -5.5355    -3.7545 C.3     
  10 C10            7.1862    -4.6004    -4.2404 C.3     
  11 C11            7.1638    -5.9598    -0.7277 C.3     
  12 C12            9.0212    -4.2590    -5.7835 C.3     
  13 C13            5.6632    -5.8970    -0.6047 C.ar    
  14 C14            8.0761    -3.2633    -6.4590 C.3     
  15 C15            4.9141    -7.0554    -0.6998 C.ar    
  16 C16            5.0387    -4.6819    -0.3907 C.ar    
  17 C17            3.5386    -7.0012    -0.5875 C.ar    
  18 C18            3.6636    -4.6210    -0.2774 C.ar    
  19 C19            2.9080    -5.7818    -0.3783 C.ar    
  20 C20            0.8465    -4.6417    -0.7119 C.2     
  21 C21           -1.1949    -3.4689    -1.0672 C.ar    
  22 C22           -0.8087    -2.9406    -2.2917 C.ar    
  23 C23           -2.2909    -2.9406    -0.3986 C.ar    
  24 C24           -1.5121    -1.8870    -2.8415 C.ar    
  25 C25           -2.9934    -1.8870    -0.9494 C.ar    
  26 C26           -2.6039    -1.3562    -2.1704 C.ar    
  27 C27           -4.4091     0.1784    -1.9667 C.3     
  28 H28            9.2978    -4.6972    -1.7704 H       
  29 H29            9.5146    -6.4638    -1.8155 H       
  30 H30            5.7469    -4.8470    -2.6557 H       
  31 H31            7.0940    -3.7515    -2.2619 H       
  32 H32            9.0911    -6.4672    -4.2493 H       
  33 H33           10.4381    -5.3718    -3.8555 H       
  34 H34            6.6705    -3.7549    -4.6957 H       
  35 H35            6.8873    -5.5215    -4.7408 H       
  36 H36            7.5184    -6.9234    -0.3619 H       
  37 H37            7.6106    -5.1601    -0.1369 H       
  38 H38           10.0439    -3.8863    -5.8422 H       
  39 H39            8.9560    -5.2223    -6.2892 H       
  40 H40            8.3602    -3.1447    -7.5046 H       
  41 H41            7.0535    -3.6359    -6.4004 H       
  42 H42            8.1413    -2.2999    -5.9533 H       
  43 H43            5.4051    -8.0034    -0.8629 H       
  44 H44            5.6269    -3.7795    -0.3124 H       
  45 H45            2.9540    -7.9062    -0.6626 H       
  46 H46            3.1764    -3.6716    -0.1107 H       
  47 H47            1.0293    -6.4615     0.1365 H       
  48 H48           -0.9443    -5.2044     0.0235 H       
  49 H49            0.0415    -3.3536    -2.8142 H       
  50 H50           -2.5945    -3.3541     0.5519 H       
  51 H51           -1.2118    -1.4760    -3.7940 H       
  52 H52           -3.8461    -1.4760    -0.4294 H       
  53 H53           -5.1387    -0.6194    -1.8280 H       
  54 H54           -4.0667     0.5308    -0.9937 H       
  55 H55           -4.8711     1.0029    -2.5097 H       
@<TRIPOS>BOND
   1    1   20 2
   2    2   26 1
   3    2   27 1
   4    3    7 1
   5    3    8 1
   6    3   11 1
   7    4    9 1
   8    4   10 1
   9    4   12 1
  10    5   19 1
  11    5   20 am
  12    5   47 1
  13    6   20 am
  14    6   21 1
  15    6   48 1
  16    7    9 1
  17    7   28 1
  18    7   29 1
  19    8   10 1
  20    8   30 1
  21    8   31 1
  22    9   32 1
  23    9   33 1
  24   10   34 1
  25   10   35 1
  26   11   13 1
  27   11   36 1
  28   11   37 1
  29   12   14 1
  30   12   38 1
  31   12   39 1
  32   13   15 ar
  33   13   16 ar
  34   14   40 1
  35   14   41 1
  36   14   42 1
  37   15   17 ar
  38   15   43 1
  39   16   18 ar
  40   16   44 1
  41   17   19 ar
  42   17   45 1
  43   18   19 ar
  44   18   46 1
  45   21   22 ar
  46   21   23 ar
  47   22   24 ar
  48   22   49 1
  49   23   25 ar
  50   23   50 1
  51   24   26 ar
  52   24   51 1
  53   25   26 ar
  54   25   52 1
  55   27   53 1
  56   27   54 1
  57   27   55 1

#	End of record

#	Name: 5307743
#	Creating user name:	landrgr1
#	Creation time:	28. 01. 2015 13:52

#	Modifying user name:	landrgr1
#	Modification time:	28. 01. 2015 13:52

#	Program:	corina 3.48 0006  22.01.2010

@<TRIPOS>MOLECULE
5307743
  46   48    0    0    0
SMALL
NO_CHARGES


@<TRIPOS>ATOM
   1 F1             2.3110     4.9666    -5.2965 F       
   2 O2            -0.0162     1.3450     0.0094 O.3     
   3 O3            -2.2938    -0.4220     0.0231 O.2     
   4 N4            -1.0060    -2.2317     0.0003 N.am    
   5 N5             1.2609    -0.3770    -0.0120 N.2     
   6 N6             2.0114     0.6683    -0.0136 N.2     
   7 C7            -2.1738    -3.1162     0.0075 C.3     
   8 C8            -1.7974    -4.4630    -0.6133 C.3     
   9 C9            -1.4490    -4.2645    -2.0898 C.3     
  10 C10           -2.6417    -3.3316     1.4482 C.3     
  11 C11           -1.0781    -5.5910    -2.7012 C.ar    
  12 C12           -1.1734    -0.8944     0.0092 C.2     
  13 C13           -2.0536    -6.3837    -3.2766 C.ar    
  14 C14            0.2383    -6.0126    -2.6915 C.ar    
  15 C15            0.0021    -0.0041     0.0020 C.2     
  16 C16           -1.7134    -7.6005    -3.8374 C.ar    
  17 C17            0.5785    -7.2295    -3.2524 C.ar    
  18 C18            1.7524     3.1670     0.0019 C.3     
  19 C19            1.2631     1.7417    -0.0006 C.2     
  20 C20            1.9021     3.6493    -1.4180 C.ar    
  21 C21           -0.3978    -8.0245    -3.8231 C.ar    
  22 C22            0.8381     4.2591    -2.0561 C.ar    
  23 C23            3.1051     3.4866    -2.0795 C.ar    
  24 C24            0.9742     4.7017    -3.3582 C.ar    
  25 C25            3.2437     3.9289    -3.3814 C.ar    
  26 C26            2.1770     4.5347    -4.0235 C.ar    
  27 H27           -2.9777    -2.6613    -0.5714 H       
  28 H28           -0.9358    -4.8765    -0.0891 H       
  29 H29           -2.6389    -5.1504    -0.5278 H       
  30 H30           -2.3106    -3.8510    -2.6140 H       
  31 H31           -0.6074    -3.5771    -2.1753 H       
  32 H32           -3.5106    -3.9897     1.4535 H       
  33 H33           -1.8379    -3.7864     2.0270 H       
  34 H34           -2.9099    -2.3721     1.8904 H       
  35 H35           -0.1123    -2.6085    -0.0108 H       
  36 H36           -3.0815    -6.0524    -3.2878 H       
  37 H37            1.0011    -5.3912    -2.2462 H       
  38 H38            1.0335     3.7970     0.5257 H       
  39 H39            2.7170     3.2192     0.5069 H       
  40 H40           -2.4756    -8.2201    -4.2864 H       
  41 H41            1.6070    -7.5587    -3.2452 H       
  42 H42           -0.1321    -8.9754    -4.2609 H       
  43 H43           -0.0999     4.3893    -1.5370 H       
  44 H44            3.9371     3.0141    -1.5784 H       
  45 H45            0.1427     5.1775    -3.8567 H       
  46 H46            4.1835     3.8014    -3.8981 H       
@<TRIPOS>BOND
   1    1   26 1
   2    2   15 1
   3    2   19 1
   4    3   12 2
   5    4    7 1
   6    4   12 am
   7    4   35 1
   8    5    6 1
   9    5   15 2
  10    6   19 2
  11    7    8 1
  12    7   10 1
  13    7   27 1
  14    8    9 1
  15    8   28 1
  16    8   29 1
  17    9   11 1
  18    9   30 1
  19    9   31 1
  20   10   32 1
  21   10   33 1
  22   10   34 1
  23   11   13 ar
  24   11   14 ar
  25   12   15 1
  26   13   16 ar
  27   13   36 1
  28   14   17 ar
  29   14   37 1
  30   16   21 ar
  31   16   40 1
  32   17   21 ar
  33   17   41 1
  34   18   19 1
  35   18   20 1
  36   18   38 1
  37   18   39 1
  38   20   22 ar
  39   20   23 ar
  40   21   42 1
  41   22   24 ar
  42   22   43 1
  43   23   25 ar
  44   23   44 1
  45   24   26 ar
  46   24   45 1
  47   25   26 ar
  48   25   46 1

#	End of record

#	Name: 5307668
#	Creating user name:	landrgr1
#	Creation time:	28. 01. 2015 13:52

#	Modifying user name:	landrgr1
#	Modification time:	28. 01. 2015 13:52

#	Program:	corina 3.48 0006  22.01.2010

@<TRIPOS>MOLECULE
5307668
  62   65    0    0    0
SMALL
NO_CHARGES


@<TRIPOS>ATOM
   1 S1            -0.0218     1.7537     0.0117 S.3     
   2 O2            -2.0738    -5.2774     0.7276 O.2     
   3 O3             4.2542    -9.1077    -4.5499 O.3     
   4 O4             4.8645     3.6727    -0.0225 O.3     
   5 N5            -1.1208    -0.8076     0.0084 N.3     
   6 N6            -0.8077    -5.0318    -1.0775 N.am    
   7 N7             1.7869    -8.5023    -3.3525 N.3     
   8 N8             1.2156    -0.4362    -0.0119 N.2     
   9 C9            -2.0122    -3.0843    -0.1420 C.3     
  10 C10           -2.9535    -2.7918     1.0297 C.3     
  11 C11           -0.7510    -2.2287    -0.0027 C.3     
  12 C12           -3.2845    -1.2969     1.0474 C.3     
  13 C13           -1.9864    -0.4932     1.1522 C.3     
  14 C14           -1.6343    -4.5431    -0.1317 C.2     
  15 C15            0.0021    -0.0041     0.0020 C.2     
  16 C16            0.5002    -6.7414    -2.2386 C.3     
  17 C17            0.8839    -8.2224    -2.2281 C.3     
  18 C18           -0.4403    -6.4499    -1.0675 C.3     
  19 C19            2.3642    -9.8498    -3.2419 C.3     
  20 C20            2.8467    -7.4873    -3.4423 C.3     
  21 C21            3.2494   -10.1216    -4.4611 C.3     
  22 C22            3.7270    -7.7828    -4.6595 C.3     
  23 C23            1.7398     1.7920    -0.0049 C.ar    
  24 C24            2.2102     0.4761    -0.0165 C.ar    
  25 C25            2.6328     2.8608    -0.0070 C.ar    
  26 C26            3.6042     0.2603    -0.0310 C.ar    
  27 C27            3.9942     2.6277    -0.0206 C.ar    
  28 C28            4.4734     1.3216    -0.0331 C.ar    
  29 C29            6.2580     3.3565    -0.0368 C.3     
  30 C30            7.0746     4.6504    -0.0369 C.3     
  31 H31           -2.5131    -2.8442    -1.0799 H       
  32 H32           -3.8719    -3.3669     0.9115 H       
  33 H33           -2.4673    -3.0683     1.9653 H       
  34 H34           -0.0850    -2.4241    -0.8432 H       
  35 H35           -0.2433    -2.4792     0.9287 H       
  36 H36           -3.8054    -1.0287     0.1282 H       
  37 H37           -3.9202    -1.0751     1.9046 H       
  38 H38           -1.4729    -0.7518     2.0782 H       
  39 H39           -2.2177     0.5720     1.1506 H       
  40 H40           -0.0150    -8.8314    -2.3239 H       
  41 H41            1.3862    -8.4610    -1.2907 H       
  42 H42            1.3992    -6.1324    -2.1429 H       
  43 H43           -0.0021    -6.5028    -3.1761 H       
  44 H44            0.0620    -6.6885    -0.1300 H       
  45 H45           -1.3393    -7.0589    -1.1632 H       
  46 H46           -0.4562    -4.4445    -1.7649 H       
  47 H47            2.9645    -9.9152    -2.3344 H       
  48 H48            1.5624   -10.5871    -3.2025 H       
  49 H49            2.3971    -6.5001    -3.5494 H       
  50 H50            3.4547    -7.5149    -2.5381 H       
  51 H51            2.6390   -10.1092    -5.3640 H       
  52 H52            3.7247   -11.0968    -4.3556 H       
  53 H53            4.5478    -7.0665    -4.6976 H       
  54 H54            3.1305    -7.7024    -5.5683 H       
  55 H55            2.2599     3.8743     0.0016 H       
  56 H56            3.9902    -0.7484    -0.0401 H       
  57 H57            5.5382     1.1418    -0.0435 H       
  58 H58            6.5066     2.7700     0.8477 H       
  59 H59            6.4906     2.7800    -0.9322 H       
  60 H60            6.8260     5.2369    -0.9214 H       
  61 H61            6.8420     5.2269     0.8584 H       
  62 H62            8.1375     4.4092    -0.0478 H       
@<TRIPOS>BOND
   1    1   15 1
   2    1   23 1
   3    2   14 2
   4    3   21 1
   5    3   22 1
   6    4   27 1
   7    4   29 1
   8    5   11 1
   9    5   13 1
  10    5   15 1
  11    6   14 am
  12    6   18 1
  13    6   46 1
  14    7   17 1
  15    7   19 1
  16    7   20 1
  17    8   15 2
  18    8   24 1
  19    9   10 1
  20    9   11 1
  21    9   14 1
  22    9   31 1
  23   10   12 1
  24   10   32 1
  25   10   33 1
  26   11   34 1
  27   11   35 1
  28   12   13 1
  29   12   36 1
  30   12   37 1
  31   13   38 1
  32   13   39 1
  33   16   17 1
  34   16   18 1
  35   16   42 1
  36   16   43 1
  37   17   40 1
  38   17   41 1
  39   18   44 1
  40   18   45 1
  41   19   21 1
  42   19   47 1
  43   19   48 1
  44   20   22 1
  45   20   49 1
  46   20   50 1
  47   21   51 1
  48   21   52 1
  49   22   53 1
  50   22   54 1
  51   23   24 ar
  52   23   25 ar
  53   24   26 ar
  54   25   27 ar
  55   25   55 1
  56   26   28 ar
  57   26   56 1
  58   27   28 ar
  59   28   57 1
  60   29   30 1
  61   29   58 1
  62   29   59 1
  63   30   60 1
  64   30   61 1
  65   30   62 1

#	End of record

#	Name: 5307552
#	Creating user name:	landrgr1
#	Creation time:	28. 01. 2015 13:52

#	Modifying user name:	landrgr1
#	Modification time:	28. 01. 2015 13:52

#	Program:	corina 3.48 0006  22.01.2010

@<TRIPOS>MOLECULE
5307552
  62   66    0    0    0
SMALL
NO_CHARGES


@<TRIPOS>ATOM
   1 S1            -0.0219     1.7606     0.0117 S.3     
   2 O2            -1.9590    -5.3283     0.7250 O.2     
   3 N3             1.7201    -8.4718    -1.5491 N.3     
   4 N4            -0.6976    -5.0533    -1.0792 N.am    
   5 N5            -1.1081    -0.8377     0.0074 N.3     
   6 N6             1.2462    -0.3839    -0.0119 N.2     
   7 N7             2.1331     0.5125    -0.0156 N.2     
   8 N8             2.5715     2.8741    -0.0075 N.pl3   
   9 C9            -0.2977    -6.4627    -1.0692 C.3     
  10 C10           -1.9471    -3.1342    -0.1442 C.3     
  11 C11            0.0982    -6.8923    -2.4845 C.3     
  12 C12            0.9004    -6.6480    -0.1340 C.3     
  13 C13            0.5726    -8.3470    -2.4569 C.3     
  14 C14            1.3516    -8.1098    -0.1745 C.3     
  15 C15           -2.8956    -2.8636     1.0269 C.3     
  16 C16           -0.7059    -2.2499    -0.0037 C.3     
  17 C17           -3.2609    -1.3767     1.0447 C.3     
  18 C18           -1.5358    -4.5839    -0.1339 C.2     
  19 C19           -1.9816    -0.5434     1.1506 C.3     
  20 C20            2.2890    -9.8251    -1.6026 C.3     
  21 C21            0.0021    -0.0041     0.0020 C.2     
  22 C22            3.5980    -9.8497    -0.8564 C.ar    
  23 C23            3.6184   -10.1446     0.4940 C.ar    
  24 C24            4.7790    -9.5828    -1.5234 C.ar    
  25 C25            1.7429     1.7508    -0.0052 C.2     
  26 C26            4.8191   -10.1671     1.1785 C.ar    
  27 C27            5.9798    -9.6053    -0.8389 C.ar    
  28 C28            5.9996    -9.8951     0.5126 C.ar    
  29 C29            3.9374     2.8565    -0.0206 C.2     
  30 C30            2.1514     4.1740    -0.0029 C.2     
  31 C31            4.3751     4.1321    -0.0189 C.2     
  32 C32            3.2409     4.9688    -0.0077 C.2     
  33 H33           -1.1301    -7.0750    -0.7221 H       
  34 H34           -2.4526    -2.9053    -1.0823 H       
  35 H35           -0.7632    -6.8029    -3.1463 H       
  36 H36            0.9039    -6.2536    -2.8467 H       
  37 H37            1.7187    -6.0055    -0.4592 H       
  38 H38            0.6121    -6.3842     0.8835 H       
  39 H39            0.8689    -8.6515    -3.4607 H       
  40 H40           -0.2379    -8.9867    -2.1078 H       
  41 H41            0.5374    -8.7507     0.1639 H       
  42 H42            2.2135    -8.2421     0.4795 H       
  43 H43           -3.8005    -3.4595     0.9079 H       
  44 H44           -2.4040    -3.1291     1.9628 H       
  45 H45           -0.0349    -2.4298    -0.8437 H       
  46 H46           -0.1932    -2.4889     0.9280 H       
  47 H47           -3.7871    -1.1202     0.1252 H       
  48 H48           -3.9020    -1.1696     1.9015 H       
  49 H49           -0.3590    -4.4580    -1.7661 H       
  50 H50           -1.4630    -0.7904     2.0770 H       
  51 H51           -2.2372     0.5162     1.1491 H       
  52 H52            1.5954   -10.5292    -1.1429 H       
  53 H53            2.4578   -10.1074    -2.6418 H       
  54 H54            2.6961   -10.3571     1.0143 H       
  55 H55            4.7636    -9.3571    -2.5795 H       
  56 H56            4.8350   -10.3968     2.2337 H       
  57 H57            6.9025    -9.3972    -1.3602 H       
  58 H58            6.9377    -9.9123     1.0475 H       
  59 H59            4.5593     1.9736    -0.0303 H       
  60 H60            1.1242     4.5076     0.0031 H       
  61 H61            5.4061     4.4538    -0.0272 H       
  62 H62            3.2438     6.0488    -0.0058 H       
@<TRIPOS>BOND
   1    1   21 1
   2    1   25 1
   3    2   18 2
   4    3   13 1
   5    3   14 1
   6    3   20 1
   7    4    9 1
   8    4   18 am
   9    4   49 1
  10    5   16 1
  11    5   19 1
  12    5   21 1
  13    6    7 1
  14    6   21 2
  15    7   25 2
  16    8   25 1
  17    8   29 1
  18    8   30 1
  19    9   11 1
  20    9   12 1
  21    9   33 1
  22   10   15 1
  23   10   16 1
  24   10   18 1
  25   10   34 1
  26   11   13 1
  27   11   35 1
  28   11   36 1
  29   12   14 1
  30   12   37 1
  31   12   38 1
  32   13   39 1
  33   13   40 1
  34   14   41 1
  35   14   42 1
  36   15   17 1
  37   15   43 1
  38   15   44 1
  39   16   45 1
  40   16   46 1
  41   17   19 1
  42   17   47 1
  43   17   48 1
  44   19   50 1
  45   19   51 1
  46   20   22 1
  47   20   52 1
  48   20   53 1
  49   22   23 ar
  50   22   24 ar
  51   23   26 ar
  52   23   54 1
  53   24   27 ar
  54   24   55 1
  55   26   28 ar
  56   26   56 1
  57   27   28 ar
  58   27   57 1
  59   28   58 1
  60   29   31 2
  61   29   59 1
  62   30   32 2
  63   30   60 1
  64   31   32 1
  65   31   61 1
  66   32   62 1

#	End of record

#	Name: 5307376
#	Creating user name:	landrgr1
#	Creation time:	28. 01. 2015 13:52

#	Modifying user name:	landrgr1
#	Modification time:	28. 01. 2015 13:52

#	Program:	corina 3.48 0006  22.01.2010

@<TRIPOS>MOLECULE
5307376
  68   71    0    0    0
SMALL
NO_CHARGES


@<TRIPOS>ATOM
   1 S1             0.1990     1.7652     0.2463 S.3     
   2 O2            -2.1861     0.3056     0.1838 O.2     
   3 O3             2.4812     5.6882    -0.2324 O.3     
   4 O4             3.1631    10.3417     1.9649 O.3     
   5 O5             3.1187     9.8839     4.6775 O.3     
   6 N6            -2.1177    -4.4116     0.9628 N.3     
   7 N7            -1.5710    -1.8237     0.0859 N.am    
   8 N8             2.3025     4.3454     1.4461 N.2     
   9 C9            -3.1307    -3.3647     1.1517 C.3     
  10 C10           -2.9639    -2.2954     0.0667 C.3     
  11 C11           -0.7600    -3.8748     1.1246 C.3     
  12 C12           -0.4960    -2.8264     0.0385 C.3     
  13 C13           -4.5273    -3.9813     1.0504 C.3     
  14 C14           -2.3386    -5.4841     1.8299 C.ar    
  15 C15           -1.2871    -0.5075     0.1453 C.2     
  16 C16           -2.6507    -6.7384     1.3205 C.ar    
  17 C17           -2.2409    -5.3004     3.2031 C.ar    
  18 C18            0.1474    -0.0462     0.1639 C.3     
  19 C19           -2.8680    -7.7966     2.1805 C.ar    
  20 C20           -2.4594    -6.3632     4.0578 C.ar    
  21 C21           -2.7755    -7.6089     3.5477 C.ar    
  22 C22           -3.2066    -9.1575     1.6289 C.3     
  23 C23            1.9774     2.1226     0.2596 C.3     
  24 C24            2.1898     3.6130     0.3271 C.2     
  25 C25            2.3005     4.4456    -0.7234 C.2     
  26 C26            2.4789     5.6017     1.1092 C.2     
  27 C27            2.6476     6.7310     2.0469 C.ar    
  28 C28            2.2341     4.0611    -2.1790 C.3     
  29 C29            2.8287     8.0259     1.5572 C.ar    
  30 C30            2.6205     6.5063     3.4245 C.ar    
  31 C31            2.9860     9.0792     2.4386 C.ar    
  32 C32            2.9638     8.8473     3.8121 C.ar    
  33 C33            2.7776     7.5615     4.2985 C.ar    
  34 C34            3.1758    10.5062     0.5455 C.3     
  35 C35            3.0856     9.5751     6.0723 C.3     
  36 H36           -3.0042    -2.9092     2.1338 H       
  37 H37           -3.6358    -1.4612     0.2684 H       
  38 H38           -3.1916    -2.7250    -0.9088 H       
  39 H39           -0.6664    -3.4121     2.1071 H       
  40 H40           -0.0355    -4.6840     1.0327 H       
  41 H41           -0.4865    -3.3071    -0.9398 H       
  42 H42            0.4638    -2.3433     0.2215 H       
  43 H43           -4.6846    -4.6637     1.8857 H       
  44 H44           -5.2768    -3.1905     1.0811 H       
  45 H45           -4.6154    -4.5291     0.1121 H       
  46 H46           -2.7238    -6.8856     0.2530 H       
  47 H47           -1.9940    -4.3277     3.6022 H       
  48 H48            0.6493    -0.3831    -0.7431 H       
  49 H49            0.6522    -0.4640     1.0350 H       
  50 H50           -2.3833    -6.2211     5.1257 H       
  51 H51           -2.9466    -8.4381     4.2182 H       
  52 H52           -2.2884    -9.7200     1.4602 H       
  53 H53           -3.8346    -9.6924     2.3414 H       
  54 H54           -3.7420    -9.0445     0.6862 H       
  55 H55            2.4364     1.6505     1.1283 H       
  56 H56            2.4335     1.7314    -0.6498 H       
  57 H57            2.3562     4.9513    -2.7959 H       
  58 H58            3.0301     3.3512    -2.4040 H       
  59 H59            1.2680     3.6025    -2.3899 H       
  60 H60            2.8461     8.2043     0.4921 H       
  61 H61            2.4761     5.5063     3.8059 H       
  62 H62            2.7558     7.3864     5.3640 H       
  63 H63            3.3245    11.5584     0.3029 H       
  64 H64            3.9873     9.9167     0.1187 H       
  65 H65            2.2253    10.1688     0.1321 H       
  66 H66            2.1244     9.1260     6.3223 H       
  67 H67            3.8864     8.8743     6.3084 H       
  68 H68            3.2207    10.4894     6.6502 H       
@<TRIPOS>BOND
   1    1   18 1
   2    1   23 1
   3    2   15 2
   4    3   25 1
   5    3   26 1
   6    4   31 1
   7    4   34 1
   8    5   32 1
   9    5   35 1
  10    6    9 1
  11    6   11 1
  12    6   14 1
  13    7   10 1
  14    7   12 1
  15    7   15 am
  16    8   24 1
  17    8   26 2
  18    9   10 1
  19    9   13 1
  20    9   36 1
  21   10   37 1
  22   10   38 1
  23   11   12 1
  24   11   39 1
  25   11   40 1
  26   12   41 1
  27   12   42 1
  28   13   43 1
  29   13   44 1
  30   13   45 1
  31   14   16 ar
  32   14   17 ar
  33   15   18 1
  34   16   19 ar
  35   16   46 1
  36   17   20 ar
  37   17   47 1
  38   18   48 1
  39   18   49 1
  40   19   21 ar
  41   19   22 1
  42   20   21 ar
  43   20   50 1
  44   21   51 1
  45   22   52 1
  46   22   53 1
  47   22   54 1
  48   23   24 1
  49   23   55 1
  50   23   56 1
  51   24   25 2
  52   25   28 1
  53   26   27 1
  54   27   29 ar
  55   27   30 ar
  56   28   57 1
  57   28   58 1
  58   28   59 1
  59   29   31 ar
  60   29   60 1
  61   30   33 ar
  62   30   61 1
  63   31   32 ar
  64   32   33 ar
  65   33   62 1
  66   34   63 1
  67   34   64 1
  68   34   65 1
  69   35   66 1
  70   35   67 1
  71   35   68 1

#	End of record

#	Name: 5307164
#	Creating user name:	landrgr1
#	Creation time:	28. 01. 2015 13:52

#	Modifying user name:	landrgr1
#	Modification time:	28. 01. 2015 13:52

#	Program:	corina 3.48 0006  22.01.2010

@<TRIPOS>MOLECULE
5307164
  40   41    0    0    0
SMALL
NO_CHARGES


@<TRIPOS>ATOM
   1 O1            -0.4536     1.0962     0.1854 O.3     
   2 O2             2.6883    -1.9428    -0.4398 O.2     
   3 N3             0.7121    -2.8637    -0.0191 N.am    
   4 N4            -0.3013    -0.1030     0.1650 N.2     
   5 C5             0.6520     3.7352    -1.5431 C.3     
   6 C6             0.8816     3.2426    -0.1129 C.3     
   7 C7             0.6911     1.7487    -0.0595 C.2     
   8 C8            -0.8078     3.4991    -1.9357 C.3     
   9 C9             0.9665     5.2303    -1.6242 C.3     
  10 C10            1.6426     0.8055    -0.2489 C.2     
  11 C11            0.9428    -0.4233    -0.0914 C.2     
  12 C12            2.3544    -6.6914     0.0167 C.ar    
  13 C13            1.2636    -4.1486    -0.0075 C.ar    
  14 C14            2.9486    -8.0762     0.0297 C.3     
  15 C15            1.5079    -1.7904    -0.1955 C.2     
  16 C16            3.0802    -5.6246     0.5142 C.ar    
  17 C17            1.0870    -6.4892    -0.4983 C.ar    
  18 C18            2.5386    -4.3542     0.5038 C.ar    
  19 C19            0.5396    -5.2214    -0.5116 C.ar    
  20 C20            2.5884    -8.7735     1.3431 C.3     
  21 H21            1.3044     3.1892    -2.2246 H       
  22 H22            1.8963     3.4909     0.1984 H       
  23 H23            0.1683     3.7240     0.5561 H       
  24 H24           -0.9714     3.8500    -2.9546 H       
  25 H25           -1.0318     2.4339    -1.8779 H       
  26 H26           -1.4602     4.0450    -1.2542 H       
  27 H27            2.0064     5.3986    -1.3446 H       
  28 H28            0.8029     5.5813    -2.6432 H       
  29 H29            0.3141     5.7763    -0.9428 H       
  30 H30            2.6898     0.9515    -0.4690 H       
  31 H31            2.5508    -8.6501    -0.8073 H       
  32 H32            4.0327    -8.0073    -0.0596 H       
  33 H33           -0.2432    -2.7449     0.0998 H       
  34 H34            4.0713    -5.7852     0.9119 H       
  35 H35            0.5246    -7.3238    -0.8901 H       
  36 H36            3.1042    -3.5222     0.8965 H       
  37 H37           -0.4522    -5.0650    -0.9096 H       
  38 H38            2.9861    -8.1996     2.1801 H       
  39 H39            1.5042    -8.8424     1.4324 H       
  40 H40            3.0181    -9.7751     1.3525 H       
@<TRIPOS>BOND
   1    1    4 1
   2    1    7 1
   3    2   15 2
   4    3   13 1
   5    3   15 am
   6    3   33 1
   7    4   11 2
   8    5    6 1
   9    5    8 1
  10    5    9 1
  11    5   21 1
  12    6    7 1
  13    6   22 1
  14    6   23 1
  15    7   10 2
  16    8   24 1
  17    8   25 1
  18    8   26 1
  19    9   27 1
  20    9   28 1
  21    9   29 1
  22   10   11 1
  23   10   30 1
  24   11   15 1
  25   12   14 1
  26   12   16 ar
  27   12   17 ar
  28   13   18 ar
  29   13   19 ar
  30   14   20 1
  31   14   31 1
  32   14   32 1
  33   16   18 ar
  34   16   34 1
  35   17   19 ar
  36   17   35 1
  37   18   36 1
  38   19   37 1
  39   20   38 1
  40   20   39 1
  41   20   40 1

#	End of record

#	Name: 5307107
#	Creating user name:	landrgr1
#	Creation time:	28. 01. 2015 13:52

#	Modifying user name:	landrgr1
#	Modification time:	28. 01. 2015 13:52

#	Program:	corina 3.48 0006  22.01.2010

@<TRIPOS>MOLECULE
5307107
  34   36    0    0    0
SMALL
NO_CHARGES


@<TRIPOS>ATOM
   1 N1             0.1205     1.1226    -0.4774 N.pl3   
   2 N2             2.2926     1.9863    -0.0102 N.pl3   
   3 N3            -1.7504     2.5398    -0.4901 N.2     
   4 N4             0.3485    -0.2436    -0.6856 N.2     
   5 N5            -1.7613     0.1371    -0.9144 N.2     
   6 C6             0.9370     2.1739    -0.1730 C.2     
   7 C7            -1.2231     1.3183    -0.6313 C.2     
   8 C8             0.3778     3.4293    -0.0319 C.2     
   9 C9             2.7633     1.0882     0.9519 C.ar    
  10 C10           -0.9959     3.5801    -0.2043 C.2     
  11 C11           -0.8128    -0.7907    -0.9505 C.2     
  12 C12            4.1178     0.7873     1.0197 C.ar    
  13 C13            1.8785     0.4989     1.8461 C.ar    
  14 C14            3.6951    -0.6898     2.8564 C.ar    
  15 C15            4.5794    -0.1005     1.9715 C.ar    
  16 C16            2.3469    -0.3880     2.7953 C.ar    
  17 C17           -1.6242     4.9415    -0.0530 C.3     
  18 C18           -1.0381    -2.2521    -1.2412 C.3     
  19 C19            4.2025    -1.6585     3.8933 C.3     
  20 H20            2.9201     2.4775    -0.5632 H       
  21 H21            0.9967     4.2810     0.2089 H       
  22 H22            4.8089     1.2468     0.3287 H       
  23 H23            0.8255     0.7344     1.7991 H       
  24 H24            5.6323    -0.3352     2.0245 H       
  25 H25            1.6595    -0.8465     3.4908 H       
  26 H26           -2.6995     4.8654    -0.2145 H       
  27 H27           -1.4335     5.3201     0.9512 H       
  28 H28           -1.1940     5.6237    -0.7862 H       
  29 H29           -1.2376    -2.7814    -0.3095 H       
  30 H30           -1.8908    -2.3620    -1.9112 H       
  31 H31           -0.1489    -2.6700    -1.7133 H       
  32 H32            4.4649    -1.1148     4.8009 H       
  33 H33            3.4256    -2.3889     4.1192 H       
  34 H34            5.0839    -2.1724     3.5099 H       
@<TRIPOS>BOND
   1    1    4 1
   2    1    6 1
   3    1    7 1
   4    2    6 1
   5    2    9 1
   6    2   20 1
   7    3    7 1
   8    3   10 2
   9    4   11 2
  10    5    7 2
  11    5   11 1
  12    6    8 2
  13    8   10 1
  14    8   21 1
  15    9   12 ar
  16    9   13 ar
  17   10   17 1
  18   11   18 1
  19   12   15 ar
  20   12   22 1
  21   13   16 ar
  22   13   23 1
  23   14   15 ar
  24   14   16 ar
  25   14   19 1
  26   15   24 1
  27   16   25 1
  28   17   26 1
  29   17   27 1
  30   17   28 1
  31   18   29 1
  32   18   30 1
  33   18   31 1
  34   19   32 1
  35   19   33 1
  36   19   34 1

#	End of record

#	Name: 5303151
#	Creating user name:	landrgr1
#	Creation time:	28. 01. 2015 13:52

#	Modifying user name:	landrgr1
#	Modification time:	28. 01. 2015 13:52

#	Program:	corina 3.48 0006  22.01.2010

@<TRIPOS>MOLECULE
5303151
  45   47    0    0    0
SMALL
NO_CHARGES


@<TRIPOS>ATOM
   1 S1             0.0910     1.6089     0.0991 S.3     
   2 O2            -2.4303     0.9562     0.0859 O.3     
   3 O3            -4.6100    -0.7104     0.1581 O.3     
   4 O4             1.0279     4.2363    -0.0744 O.2     
   5 O5             2.9433    10.4535    -0.6862 O.3     
   6 O6             4.7511    10.2004     0.5776 O.2     
   7 N7             1.3735    -0.7447     0.3075 N.ar    
   8 N8             3.2396     4.0757    -0.0070 N.am    
   9 N9             1.5084    -2.0146     0.4065 N.ar    
  10 C10           -0.9725    -0.9364     0.2637 C.ar    
  11 C11           -0.8145    -2.3431     0.3735 C.ar    
  12 C12           -2.2600    -0.3879     0.1908 C.ar    
  13 C13           -3.3561    -1.2325     0.2277 C.ar    
  14 C14            0.1972    -0.1448     0.2331 C.ar    
  15 C15           -1.9453    -3.1678     0.4080 C.ar    
  16 C16           -3.1889    -2.6130     0.3357 C.ar    
  17 C17            0.4968    -2.8506     0.4443 C.ar    
  18 C18            1.8507     2.0322     0.1114 C.3     
  19 C19            3.3847     5.4622    -0.0101 C.ar    
  20 C20            2.0086     3.5271     0.0033 C.2     
  21 C21            4.4434     6.0508     0.6747 C.ar    
  22 C22            2.4739     6.2539    -0.7027 C.ar    
  23 C23            3.6738     8.2183    -0.0170 C.ar    
  24 C24            4.5901     7.4194     0.6735 C.ar    
  25 C25            2.6146     7.6232    -0.7087 C.ar    
  26 C26           -2.4804     1.5027    -1.2335 C.3     
  27 C27           -5.7003    -1.6332     0.2009 C.3     
  28 C28            3.8274     9.6849    -0.0202 C.2     
  29 H29           -1.8332    -4.2388     0.4913 H       
  30 H30           -4.0585    -3.2529     0.3627 H       
  31 H31            0.6683    -3.9136     0.5282 H       
  32 H32            2.3013     1.6856     1.0414 H       
  33 H33            2.3457     1.5526    -0.7330 H       
  34 H34            4.0245     3.5059    -0.0123 H       
  35 H35            5.1507     5.4330     1.2082 H       
  36 H36            1.6557     5.7935    -1.2366 H       
  37 H37            5.4119     7.8756     1.2055 H       
  38 H38            1.9073     8.2370    -1.2465 H       
  39 H39           -2.6194     2.5822    -1.1747 H       
  40 H40           -1.5473     1.2843    -1.7529 H       
  41 H41           -3.3127     1.0585    -1.7795 H       
  42 H42           -5.6241    -2.3248    -0.6381 H       
  43 H43           -5.6670    -2.1917     1.1364 H       
  44 H44           -6.6413    -1.0869     0.1371 H       
  45 H45            3.0852    11.4096    -0.6595 H       
@<TRIPOS>BOND
   1    1   14 1
   2    1   18 1
   3    2   12 1
   4    2   26 1
   5    3   13 1
   6    3   27 1
   7    4   20 2
   8    5   28 1
   9    5   45 1
  10    6   28 2
  11    7    9 ar
  12    7   14 ar
  13    8   19 1
  14    8   20 am
  15    8   34 1
  16    9   17 ar
  17   10   11 ar
  18   10   12 ar
  19   10   14 ar
  20   11   15 ar
  21   11   17 ar
  22   12   13 ar
  23   13   16 ar
  24   15   16 ar
  25   15   29 1
  26   16   30 1
  27   17   31 1
  28   18   20 1
  29   18   32 1
  30   18   33 1
  31   19   21 ar
  32   19   22 ar
  33   21   24 ar
  34   21   35 1
  35   22   25 ar
  36   22   36 1
  37   23   24 ar
  38   23   25 ar
  39   23   28 1
  40   24   37 1
  41   25   38 1
  42   26   39 1
  43   26   40 1
  44   26   41 1
  45   27   42 1
  46   27   43 1
  47   27   44 1

#	End of record

#	Name: 5302706
#	Creating user name:	landrgr1
#	Creation time:	28. 01. 2015 13:52

#	Modifying user name:	landrgr1
#	Modification time:	28. 01. 2015 13:52

#	Program:	corina 3.48 0006  22.01.2010

@<TRIPOS>MOLECULE
5302706
  45   48    0    0    0
SMALL
NO_CHARGES


@<TRIPOS>ATOM
   1 O1             0.9489    -2.3854     0.8552 O.2     
   2 O2            -0.6367     1.4539    -0.3331 O.3     
   3 O3             0.8074    -0.2297    -0.3472 O.2     
   4 N4            -3.6229    -2.5912     0.0361 N.pl3   
   5 N5            -4.9205    -3.0995     0.1201 N.pl3   
   6 N6            -2.7081    -0.4386    -0.1740 N.2     
   7 N7            -5.0876    -0.9894    -0.0512 N.2     
   8 N8            -5.7296    -2.0968     0.0621 N.2     
   9 C9            -2.2807    -3.1791     0.0417 C.3     
  10 C10           -1.1231    -2.2022    -0.0778 C.2     
  11 C11           -2.1120    -3.9526     1.3240 C.ar    
  12 C12           -1.4414    -0.8583    -0.1801 C.2     
  13 C13           -3.7565    -1.2279    -0.0796 C.2     
  14 C14            0.2175    -2.6449    -0.0839 C.2     
  15 C15           -1.5835    -5.2296     1.2964 C.ar    
  16 C16           -2.4807    -3.3829     2.5283 C.ar    
  17 C17            0.7341    -3.4239    -1.2308 C.ar    
  18 C18           -0.3475     0.1396    -0.2923 C.2     
  19 C19           -1.4288    -5.9391     2.4727 C.ar    
  20 C20           -2.3260    -4.0924     3.7046 C.ar    
  21 C21            2.0538    -3.8789    -1.2316 C.ar    
  22 C22           -0.0977    -3.7120    -2.3142 C.ar    
  23 C23           -1.8023    -5.3715     3.6765 C.ar    
  24 C24            1.7008    -4.8828    -3.3769 C.ar    
  25 C25            2.5291    -4.6051    -2.3038 C.ar    
  26 C26            0.3900    -4.4392    -3.3801 C.ar    
  27 C27            2.2269    -5.6767    -4.5448 C.3     
  28 C28            0.4827     2.3721    -0.4434 C.3     
  29 H29           -2.2158    -3.8855    -0.7859 H       
  30 H30           -5.1677    -4.0335     0.2062 H       
  31 H31           -1.2917    -5.6731     0.3559 H       
  32 H32           -2.8892    -2.3834     2.5504 H       
  33 H33           -1.0166    -6.9371     2.4511 H       
  34 H34           -2.6136    -3.6472     4.6456 H       
  35 H35            2.7014    -3.6626    -0.3948 H       
  36 H36           -1.1210    -3.3667    -2.3177 H       
  37 H37           -1.6818    -5.9259     4.5954 H       
  38 H38            3.5500    -4.9575    -2.3058 H       
  39 H39           -0.2526    -4.6631    -4.2187 H       
  40 H40            2.0538    -6.7386    -4.3698 H       
  41 H41            1.7111    -5.3697    -5.4547 H       
  42 H42            3.2962    -5.4961    -4.6548 H       
  43 H43            0.1113     3.3966    -0.4662 H       
  44 H44            1.1434     2.2441     0.4140 H       
  45 H45            1.0336     2.1648    -1.3608 H       
@<TRIPOS>BOND
   1    1   14 2
   2    2   18 1
   3    2   28 1
   4    3   18 2
   5    4    5 1
   6    4    9 1
   7    4   13 1
   8    5    8 1
   9    5   30 1
  10    6   12 1
  11    6   13 2
  12    7    8 2
  13    7   13 1
  14    9   10 1
  15    9   11 1
  16    9   29 1
  17   10   12 2
  18   10   14 1
  19   11   15 ar
  20   11   16 ar
  21   12   18 1
  22   14   17 1
  23   15   19 ar
  24   15   31 1
  25   16   20 ar
  26   16   32 1
  27   17   21 ar
  28   17   22 ar
  29   19   23 ar
  30   19   33 1
  31   20   23 ar
  32   20   34 1
  33   21   25 ar
  34   21   35 1
  35   22   26 ar
  36   22   36 1
  37   23   37 1
  38   24   25 ar
  39   24   26 ar
  40   24   27 1
  41   25   38 1
  42   26   39 1
  43   27   40 1
  44   27   41 1
  45   27   42 1
  46   28   43 1
  47   28   44 1
  48   28   45 1

#	End of record

#	Name: 5297376
#	Creating user name:	landrgr1
#	Creation time:	28. 01. 2015 13:52

#	Modifying user name:	landrgr1
#	Modification time:	28. 01. 2015 13:52

#	Program:	corina 3.48 0006  22.01.2010

@<TRIPOS>MOLECULE
5297376
  34   35    0    0    0
SMALL
NO_CHARGES


@<TRIPOS>ATOM
   1 O1             0.7703    -0.2131    -1.1841 O.2     
   2 O2             5.4726     3.0254    -0.9926 O.2     
   3 N3            -0.2269     1.2852     0.1132 N.am    
   4 N4            -2.2790    -2.9643    -1.2332 N.pl3   
   5 N5             4.3287     4.4894     0.2202 N.am    
   6 N6            -2.8383    -3.4174    -0.1625 N.2     
   7 N7            -3.9161    -4.2135    -1.7823 N.2     
   8 N8            -3.8265    -4.1714    -0.4977 N.2     
   9 C9            -1.3996    -0.8119    -0.4748 C.3     
  10 C10           -1.1198    -2.0708    -1.2980 C.3     
  11 C11           -0.2072     0.1072    -0.5414 C.2     
  12 C12            0.9186     2.0909     0.1398 C.ar    
  13 C13            3.1832     3.6837     0.1935 C.ar    
  14 C14            0.7946     3.4740     0.1532 C.ar    
  15 C15            2.1782     1.5065     0.1587 C.ar    
  16 C16            1.9235     4.2680     0.1800 C.ar    
  17 C17            3.3072     2.3005     0.1854 C.ar    
  18 C18           -2.9570    -3.4713    -2.2796 C.2     
  19 C19            5.4379     4.1059    -0.4426 C.2     
  20 C20            6.6348     5.0197    -0.5004 C.3     
  21 H21           -2.2746    -0.3015    -0.8773 H       
  22 H22           -1.5864    -1.0901     0.5625 H       
  23 H23           -0.2448    -2.5811    -0.8955 H       
  24 H24           -0.9330    -1.7926    -2.3352 H       
  25 H25           -1.0356     1.5769     0.5625 H       
  26 H26           -0.1851     3.9284     0.1423 H       
  27 H27            2.2746     0.4308     0.1528 H       
  28 H28            1.8271     5.3437     0.1866 H       
  29 H29            4.2868     1.8461     0.1956 H       
  30 H30           -2.7543    -3.2953    -3.3257 H       
  31 H31            4.3237     5.3232     0.7156 H       
  32 H32            7.4287     4.5427    -1.0751 H       
  33 H33            6.3531     5.9576    -0.9790 H       
  34 H34            6.9884     5.2197     0.5111 H       
@<TRIPOS>BOND
   1    1   11 2
   2    2   19 2
   3    3   11 am
   4    3   12 1
   5    3   25 1
   6    4    6 1
   7    4   10 1
   8    4   18 1
   9    5   13 1
  10    5   19 am
  11    5   31 1
  12    6    8 2
  13    7    8 1
  14    7   18 2
  15    9   10 1
  16    9   11 1
  17    9   21 1
  18    9   22 1
  19   10   23 1
  20   10   24 1
  21   12   14 ar
  22   12   15 ar
  23   13   16 ar
  24   13   17 ar
  25   14   16 ar
  26   14   26 1
  27   15   17 ar
  28   15   27 1
  29   16   28 1
  30   17   29 1
  31   18   30 1
  32   19   20 1
  33   20   32 1
  34   20   33 1
  35   20   34 1

#	End of record

#	Name: 5294271
#	Creating user name:	landrgr1
#	Creation time:	28. 01. 2015 13:52

#	Modifying user name:	landrgr1
#	Modification time:	28. 01. 2015 13:52

#	Program:	corina 3.48 0006  22.01.2010

@<TRIPOS>MOLECULE
5294271
  36   37    0    0    0
SMALL
NO_CHARGES


@<TRIPOS>ATOM
   1 S1            -0.0218     1.7577     0.0117 S.3     
   2 O2             6.7933     0.5651    -0.0648 O.3     
   3 O3             2.4130    -2.6022    -0.0367 O.3     
   4 N4            -1.1460    -0.6662     0.0094 N.ar    
   5 N5             1.1678    -0.6347    -0.0129 N.ar    
   6 N6             4.4971     0.2235    -0.0422 N.ar    
   7 N7             3.4571    -0.5286    -0.0355 N.ar    
   8 C8             7.8400     2.7433    -0.0644 C.3     
   9 C9             6.5211     1.9679    -0.0545 C.3     
  10 C10            7.5487     4.2453    -0.0533 C.3     
  11 C11            5.7231    -0.2705    -0.0578 C.ar    
  12 C12           -1.1671    -1.9904     0.0021 C.ar    
  13 C13            1.2192    -1.9610    -0.0210 C.ar    
  14 C14            5.9147    -1.6508    -0.0677 C.ar    
  15 C15            0.0276    -2.6854    -0.0135 C.ar    
  16 C16            3.5419    -1.8476    -0.0439 C.ar    
  17 C17            4.7926    -2.4621    -0.0605 C.ar    
  18 C18           -2.4794    -2.7313     0.0111 C.3     
  19 C19            0.0021    -0.0041     0.0020 C.ar    
  20 C20            1.7562     2.0963    -0.0035 C.3     
  21 H21            8.4231     2.4798     0.8181 H       
  22 H22            8.4041     2.4892    -0.9618 H       
  23 H23            5.9381     2.2314    -0.9369 H       
  24 H24            5.9570     2.2219     0.8429 H       
  25 H25            6.9656     4.5088    -0.9357 H       
  26 H26            6.9846     4.4993     0.8441 H       
  27 H27            8.4883     4.7977    -0.0604 H       
  28 H28            0.0380    -3.7653    -0.0194 H       
  29 H29            6.9080    -2.0747    -0.0809 H       
  30 H30            4.8839    -3.5382    -0.0679 H       
  31 H31           -2.8061    -2.9041    -1.0143 H       
  32 H32           -2.3530    -3.6879     0.5182 H       
  33 H33           -3.2280    -2.1379     0.5360 H       
  34 H34            1.9209     3.1737     0.0008 H       
  35 H35            2.2177     1.6547     0.8798 H       
  36 H36            2.2007     1.6643    -0.9001 H       
@<TRIPOS>BOND
   1    1   19 1
   2    1   20 1
   3    2    9 1
   4    2   11 1
   5    3   13 1
   6    3   16 1
   7    4   12 ar
   8    4   19 ar
   9    5   13 ar
  10    5   19 ar
  11    6    7 ar
  12    6   11 ar
  13    7   16 ar
  14    8    9 1
  15    8   10 1
  16    8   21 1
  17    8   22 1
  18    9   23 1
  19    9   24 1
  20   10   25 1
  21   10   26 1
  22   10   27 1
  23   11   14 ar
  24   12   15 ar
  25   12   18 1
  26   13   15 ar
  27   14   17 ar
  28   14   29 1
  29   15   28 1
  30   16   17 ar
  31   17   30 1
  32   18   31 1
  33   18   32 1
  34   18   33 1
  35   20   34 1
  36   20   35 1
  37   20   36 1

#	End of record

#	Name: 5293709
#	Creating user name:	landrgr1
#	Creation time:	28. 01. 2015 13:52

#	Modifying user name:	landrgr1
#	Modification time:	28. 01. 2015 13:52

#	Program:	corina 3.48 0006  22.01.2010

@<TRIPOS>MOLECULE
5293709
  28   30    0    0    0
SMALL
NO_CHARGES


@<TRIPOS>ATOM
   1 S1            -0.0205     1.6630     0.0112 S.3     
   2 N2             0.0021    -0.0041     0.0020 N.pl3   
   3 N3            -0.8224    -1.1325     0.0038 N.pl3   
   4 N4             2.2639     0.4802    -0.0170 N.2     
   5 N5             2.2325     2.5802    -1.2118 N.pl3   
   6 C6             1.7978     1.8723    -0.0051 C.3     
   7 C7             1.3163    -0.4163    -0.0127 C.2     
   8 C8            -0.0406    -2.2549    -0.0097 C.2     
   9 C9             1.2503    -1.9004    -0.0201 C.2     
  10 C10            3.5196     3.1182    -1.2804 C.ar    
  11 C11           -0.5534    -3.6720    -0.0114 C.3     
  12 C12            3.9334     3.7897    -2.4239 C.ar    
  13 C13            4.3869     2.9878    -0.2032 C.ar    
  14 C14            5.2068     4.3203    -2.4884 C.ar    
  15 C15            5.6590     3.5208    -0.2744 C.ar    
  16 C16            6.0696     4.1838    -1.4164 C.ar    
  17 H17            2.1383     2.3894     0.8920 H       
  18 H18           -1.7923    -1.1216     0.0134 H       
  19 H19            2.0943    -2.5741    -0.0314 H       
  20 H20            1.6263     2.6754    -1.9631 H       
  21 H21           -0.6875    -4.0086    -1.0394 H       
  22 H22            0.1651    -4.3190     0.4920 H       
  23 H23           -1.5086    -3.7134     0.5120 H       
  24 H24            3.2601     3.8964    -3.2616 H       
  25 H25            4.0667     2.4705     0.6891 H       
  26 H26            5.5292     4.8422    -3.3772 H       
  27 H27            6.3336     3.4201     0.5629 H       
  28 H28            7.0649     4.5997    -1.4695 H       
@<TRIPOS>BOND
   1    1    2 1
   2    1    6 1
   3    2    3 1
   4    2    7 1
   5    3    8 1
   6    3   18 1
   7    4    6 1
   8    4    7 2
   9    5    6 1
  10    5   10 1
  11    5   20 1
  12    6   17 1
  13    7    9 1
  14    8    9 2
  15    8   11 1
  16    9   19 1
  17   10   12 ar
  18   10   13 ar
  19   11   21 1
  20   11   22 1
  21   11   23 1
  22   12   14 ar
  23   12   24 1
  24   13   15 ar
  25   13   25 1
  26   14   16 ar
  27   14   26 1
  28   15   16 ar
  29   15   27 1
  30   16   28 1

#	End of record

#	Name: 5293029
#	Creating user name:	landrgr1
#	Creation time:	28. 01. 2015 13:52

#	Modifying user name:	landrgr1
#	Modification time:	28. 01. 2015 13:52

#	Program:	corina 3.48 0006  22.01.2010

@<TRIPOS>MOLECULE
5293029
  50   53    0    0    0
SMALL
NO_CHARGES


@<TRIPOS>ATOM
   1 O1             1.4757    -2.0512    -3.4344 O.2     
   2 O2            -0.3927     1.2422     0.0179 O.3     
   3 O3             2.9218    -6.1015    -3.7388 O.3     
   4 O4            -2.6205    -0.2707     0.5970 O.3     
   5 O5             2.8851    -3.9435    -4.2534 O.2     
   6 N6             2.7725    -5.3840    -0.9955 N.pl3   
   7 N7             2.4667    -3.8872     0.7902 N.2     
   8 N8             2.9661    -6.7751    -1.0617 N.pl3   
   9 N9             2.7735    -6.2948     0.9988 N.2     
  10 N10            2.9543    -7.2328     0.1405 N.2     
  11 C11            2.3697    -2.7771    -0.1689 C.3     
  12 C12            2.5030    -3.1140    -1.6396 C.2     
  13 C13            1.0366    -2.1047     0.0355 C.ar    
  14 C14            2.7012    -4.4184    -1.9711 C.2     
  15 C15            2.6570    -5.0983     0.3500 C.2     
  16 C16            2.4199    -2.0742    -2.6669 C.2     
  17 C17            0.9344    -0.7300    -0.0684 C.ar    
  18 C18           -0.0827    -2.8645     0.3208 C.ar    
  19 C19           -0.2906    -0.1102     0.1192 C.ar    
  20 C20            3.4832    -1.0519    -2.7719 C.ar    
  21 C21            2.8419    -4.8014    -3.3956 C.2     
  22 C22           -1.3078    -2.2524     0.5091 C.ar    
  23 C23           -1.4160    -0.8744     0.4121 C.ar    
  24 C24            3.3545     0.0035    -3.6773 C.ar    
  25 C25            4.6178    -1.1344    -1.9621 C.ar    
  26 C26            4.3501     0.9535    -3.7701 C.ar    
  27 C27            5.6058    -0.1775    -2.0652 C.ar    
  28 C28            5.4748     0.8623    -2.9689 C.ar    
  29 C29            0.8214     1.9722    -0.1692 C.3     
  30 C30            3.0584    -6.4029    -5.1525 C.3     
  31 C31           -3.7320    -1.1181     0.8946 C.3     
  32 H32            3.1462    -2.0531     0.0779 H       
  33 H33            1.8095    -0.1391    -0.2954 H       
  34 H34            0.0003    -3.9387     0.3964 H       
  35 H35            3.0869    -7.2971    -1.8704 H       
  36 H36           -2.1807    -2.8483     0.7315 H       
  37 H37            2.4776     0.0754    -4.3036 H       
  38 H38            4.7213    -1.9454    -1.2564 H       
  39 H39            4.2518     1.7703    -4.4699 H       
  40 H40            6.4839    -0.2401    -1.4395 H       
  41 H41            6.2515     1.6087    -3.0459 H       
  42 H42            0.6096     3.0412    -0.1473 H       
  43 H43            1.5212     1.7240     0.6288 H       
  44 H44            1.2595     1.7083    -1.1317 H       
  45 H45            2.1971    -6.0098    -5.6927 H       
  46 H46            3.9689    -5.9423    -5.5359 H       
  47 H47            3.1117    -7.4828    -5.2903 H       
  48 H48           -3.8804    -1.8233     0.0768 H       
  49 H49           -3.5346    -1.6662     1.8158 H       
  50 H50           -4.6288    -0.5110     1.0181 H       
@<TRIPOS>BOND
   1    1   16 2
   2    2   19 1
   3    2   29 1
   4    3   21 1
   5    3   30 1
   6    4   23 1
   7    4   31 1
   8    5   21 2
   9    6    8 1
  10    6   14 1
  11    6   15 1
  12    7   11 1
  13    7   15 2
  14    8   10 1
  15    8   35 1
  16    9   10 2
  17    9   15 1
  18   11   12 1
  19   11   13 1
  20   11   32 1
  21   12   14 2
  22   12   16 1
  23   13   17 ar
  24   13   18 ar
  25   14   21 1
  26   16   20 1
  27   17   19 ar
  28   17   33 1
  29   18   22 ar
  30   18   34 1
  31   19   23 ar
  32   20   24 ar
  33   20   25 ar
  34   22   23 ar
  35   22   36 1
  36   24   26 ar
  37   24   37 1
  38   25   27 ar
  39   25   38 1
  40   26   28 ar
  41   26   39 1
  42   27   28 ar
  43   27   40 1
  44   28   41 1
  45   29   42 1
  46   29   43 1
  47   29   44 1
  48   30   45 1
  49   30   46 1
  50   30   47 1
  51   31   48 1
  52   31   49 1
  53   31   50 1

#	End of record

#	Name: 5292597
#	Creating user name:	landrgr1
#	Creation time:	28. 01. 2015 13:52

#	Modifying user name:	landrgr1
#	Modification time:	28. 01. 2015 13:52

#	Program:	corina 3.48 0006  22.01.2010

@<TRIPOS>MOLECULE
5292597
  40   42    0    0    0
SMALL
NO_CHARGES


@<TRIPOS>ATOM
   1 Cl1            3.2421     9.8058    -9.7039 Cl      
   2 S2            -0.0172     1.4168     0.0098 S.o2    
   3 O3            -2.6589     2.8077    -5.0777 O.3     
   4 O4             0.0021    -0.0041     0.0020 O.2     
   5 O5             1.1903     2.1659     0.0023 O.2     
   6 O6            -3.5549     4.6219    -6.0598 O.2     
   7 O7             0.9221     6.1834    -4.5972 O.2     
   8 N8            -0.8903     4.6525    -3.8762 N.pl3   
   9 C9            -0.8061     1.8490    -1.5052 C.ar    
  10 C10           -1.1615     3.4079    -3.2936 C.ar    
  11 C11           -1.1394     2.0311     1.2958 C.3     
  12 C12           -0.5405     3.0671    -2.0981 C.ar    
  13 C13           -2.0451     2.5173    -3.8995 C.ar    
  14 C14           -1.6915     0.9670    -2.0999 C.ar    
  15 C15           -2.3085     1.2960    -3.2900 C.ar    
  16 C16           -1.3613     4.8434    -5.1708 C.2     
  17 C17           -0.5580     1.7125     2.6748 C.3     
  18 C18           -2.6230     4.0997    -5.4821 C.2     
  19 C19           -0.7293     5.6376    -6.0773 C.2     
  20 C20            0.4629     6.3133    -5.7176 C.2     
  21 C21            1.1497     7.1762    -6.7026 C.ar    
  22 C22            2.3249     7.8436    -6.3510 C.ar    
  23 C23            0.6286     7.3226    -7.9900 C.ar    
  24 C24            2.9607     8.6469    -7.2738 C.ar    
  25 C25            1.2735     8.1287    -8.9040 C.ar    
  26 C26            2.4359     8.7927    -8.5475 C.ar    
  27 H27           -1.2562     3.1098     1.1911 H       
  28 H28           -2.1111     1.5485     1.1909 H       
  29 H29            0.1495     3.7552    -1.6327 H       
  30 H30           -1.9001     0.0167    -1.6311 H       
  31 H31           -2.9979     0.6027    -3.7489 H       
  32 H32           -0.4011     5.3433    -3.4027 H       
  33 H33           -0.4412     0.6339     2.7795 H       
  34 H34            0.4137     2.1951     2.7797 H       
  35 H35           -1.2323     2.0817     3.4475 H       
  36 H36           -1.1365     5.7528    -7.0709 H       
  37 H37            2.7348     7.7309    -5.3581 H       
  38 H38           -0.2773     6.8052    -8.2691 H       
  39 H39            3.8695     9.1637    -7.0029 H       
  40 H40            0.8715     8.2427    -9.8999 H       
@<TRIPOS>BOND
   1    1   26 1
   2    2    4 2
   3    2    5 2
   4    2    9 1
   5    2   11 1
   6    3   13 1
   7    3   18 1
   8    6   18 2
   9    7   20 2
  10    8   10 1
  11    8   16 1
  12    8   32 1
  13    9   12 ar
  14    9   14 ar
  15   10   12 ar
  16   10   13 ar
  17   11   17 1
  18   11   27 1
  19   11   28 1
  20   12   29 1
  21   13   15 ar
  22   14   15 ar
  23   14   30 1
  24   15   31 1
  25   16   18 1
  26   16   19 2
  27   17   33 1
  28   17   34 1
  29   17   35 1
  30   19   20 1
  31   19   36 1
  32   20   21 1
  33   21   22 ar
  34   21   23 ar
  35   22   24 ar
  36   22   37 1
  37   23   25 ar
  38   23   38 1
  39   24   26 ar
  40   24   39 1
  41   25   26 ar
  42   25   40 1

#	End of record

#	Name: 5286687
#	Creating user name:	landrgr1
#	Creation time:	28. 01. 2015 13:52

#	Modifying user name:	landrgr1
#	Modification time:	28. 01. 2015 13:52

#	Program:	corina 3.48 0006  22.01.2010

@<TRIPOS>MOLECULE
5286687
  53   54    0    0    0
SMALL
NO_CHARGES


@<TRIPOS>ATOM
   1 O1             0.1908     0.2861    -0.9407 O.3     
   2 O2             6.4267     1.6374    -1.2884 O.2     
   3 O3             8.2332     2.7783    -0.0808 O.2     
   4 O4             5.8796    -3.3233     2.7362 O.3     
   5 O5             6.6740    -2.8304     0.7338 O.2     
   6 N6             5.7112     1.1603     0.7603 N.am    
   7 N7             6.7048     4.3863     0.0263 N.am    
   8 C8            -1.0488     0.5391    -0.2762 C.3     
   9 C9             3.2771     2.9344    -0.2233 C.ar    
  10 C10            1.2056     1.1569    -0.7048 C.ar    
  11 C11            5.6604     3.4590    -0.0558 C.2     
  12 C12            4.3756     3.8769     0.0321 C.2     
  13 C13            2.0539     3.0851     0.4401 C.ar    
  14 C14            3.4487     1.8864    -1.1350 C.ar    
  15 C15            1.0280     2.1993     0.1972 C.ar    
  16 C16            2.4163     1.0061    -1.3705 C.ar    
  17 C17            6.1086    -0.2430     0.6217 C.3     
  18 C18            5.9577     2.0322    -0.2373 C.2     
  19 C19           -1.8503     1.5738    -1.0685 C.3     
  20 C20           -1.8498    -0.7609    -0.1788 C.3     
  21 C21            5.7163    -1.0114     1.8852 C.3     
  22 C22            7.9834     3.9608     0.0513 C.2     
  23 C23            9.0819     4.9317     0.2393 C.ar    
  24 C24           10.4073     4.4943     0.2657 C.ar    
  25 C25            8.7989     6.2908     0.3856 C.ar    
  26 C26            6.1252    -2.4548     1.7426 C.2     
  27 C27           11.4278     5.4058     0.4416 C.ar    
  28 C28            9.8288     7.1917     0.5608 C.ar    
  29 C29           11.1400     6.7507     0.5922 C.ar    
  30 H30           -0.8526     0.9209     0.7257 H       
  31 H31            4.1579     4.9029     0.2899 H       
  32 H32            1.9149     3.8946     1.1414 H       
  33 H33            4.3889     1.7685    -1.6530 H       
  34 H34            5.6047    -0.6798    -0.2405 H       
  35 H35            7.1878    -0.3027     0.4805 H       
  36 H36            0.0852     2.3120     0.7118 H       
  37 H37            2.5491     0.1944    -2.0704 H       
  38 H38           -2.7958     1.7668    -0.5617 H       
  39 H39           -1.2797     2.4999    -1.1379 H       
  40 H40           -2.0465     1.1920    -2.0704 H       
  41 H41           -1.2788    -1.4981     0.3856 H       
  42 H42           -2.7953    -0.5679     0.3280 H       
  43 H43           -2.0459    -1.1427    -1.1807 H       
  44 H44            5.2705     1.4618     1.5702 H       
  45 H45            6.2203    -0.5745     2.7473 H       
  46 H46            4.6371    -0.9517     2.0264 H       
  47 H47            6.5087     5.3355     0.0652 H       
  48 H48           10.6332     3.4447     0.1490 H       
  49 H49            7.7759     6.6363     0.3613 H       
  50 H50           12.4536     5.0687     0.4623 H       
  51 H51            9.6113     8.2435     0.6738 H       
  52 H52           11.9426     7.4601     0.7303 H       
  53 H53            6.1602    -4.2384     2.5987 H       
@<TRIPOS>BOND
   1    1    8 1
   2    1   10 1
   3    2   18 2
   4    3   22 2
   5    4   26 1
   6    4   53 1
   7    5   26 2
   8    6   17 1
   9    6   18 am
  10    6   44 1
  11    7   11 1
  12    7   22 am
  13    7   47 1
  14    8   19 1
  15    8   20 1
  16    8   30 1
  17    9   12 1
  18    9   13 ar
  19    9   14 ar
  20   10   15 ar
  21   10   16 ar
  22   11   12 2
  23   11   18 1
  24   12   31 1
  25   13   15 ar
  26   13   32 1
  27   14   16 ar
  28   14   33 1
  29   15   36 1
  30   16   37 1
  31   17   21 1
  32   17   34 1
  33   17   35 1
  34   19   38 1
  35   19   39 1
  36   19   40 1
  37   20   41 1
  38   20   42 1
  39   20   43 1
  40   21   26 1
  41   21   45 1
  42   21   46 1
  43   22   23 1
  44   23   24 ar
  45   23   25 ar
  46   24   27 ar
  47   24   48 1
  48   25   28 ar
  49   25   49 1
  50   27   29 ar
  51   27   50 1
  52   28   29 ar
  53   28   51 1
  54   29   52 1

#	End of record

#	Name: 5286607
#	Creating user name:	landrgr1
#	Creation time:	28. 01. 2015 13:52

#	Modifying user name:	landrgr1
#	Modification time:	28. 01. 2015 13:52

#	Program:	corina 3.48 0006  22.01.2010

@<TRIPOS>MOLECULE
5286607
  54   57    0    0    0
SMALL
NO_CHARGES


@<TRIPOS>ATOM
   1 O1             1.7087     3.5744     2.2704 O.2     
   2 O2             1.4961     2.7936     0.3222 O.2     
   3 N3            -0.6321     1.7840    -0.4966 N.3     
   4 N4             1.0082     3.0959     1.3965 N.pl3   
   5 N5            -5.4120     4.7636     7.6495 N.pl3   
   6 N6            -4.5125     4.5900     6.5941 N.2     
   7 N7            -7.2756     3.5172     8.6188 N.pl3   
   8 N8            -4.7379     0.6343     3.8326 N.1     
   9 N9            -7.0060     0.5822     6.1189 N.1     
  10 C10           -0.5570     0.6240    -3.1400 C.3     
  11 C11           -0.3675     2.1256    -2.9078 C.3     
  12 C12           -0.0726    -0.1406    -1.9050 C.3     
  13 C13           -1.1327     2.5428    -1.6498 C.3     
  14 C14           -0.8463     0.3423    -0.6761 C.3     
  15 C15           -1.2146     2.2314     0.6860 C.ar    
  16 C16           -0.4364     2.8817     1.6400 C.ar    
  17 C17           -2.5746     2.0324     0.9083 C.ar    
  18 C18           -1.0104     3.3248     2.8098 C.ar    
  19 C19           -3.1533     2.4689     2.0657 C.ar    
  20 C20           -2.3781     3.1190     3.0353 C.ar    
  21 C21           -2.9974     3.5877     4.2794 C.2     
  22 C22           -4.0376     2.8969     4.8251 C.2     
  23 C23           -4.7635     3.4505     5.9891 C.2     
  24 C24           -5.8978     2.8288     6.6836 C.2     
  25 C25           -6.2529     3.7004     7.7083 C.2     
  26 C26           -5.4376     5.8629     8.5167 C.ar    
  27 C27           -4.2519     6.4810     8.8920 C.ar    
  28 C28           -6.6492     6.3410     8.9986 C.ar    
  29 C29           -4.4281     1.6352     4.2717 C.1     
  30 C30           -4.2806     7.5652     9.7470 C.ar    
  31 C31           -6.6711     7.4256     9.8533 C.ar    
  32 C32           -6.5158     1.5760     6.3687 C.1     
  33 C33           -5.4883     8.0355    10.2293 C.ar    
  34 H34           -1.6127     0.4119    -3.3089 H       
  35 H35            0.0215     0.3142    -4.0103 H       
  36 H36            0.6927     2.3428    -2.7776 H       
  37 H37           -0.7500     2.6777    -3.7663 H       
  38 H38           -0.2444    -1.2076    -2.0470 H       
  39 H39            0.9922     0.0409    -1.7590 H       
  40 H40           -2.1946     2.3381    -1.7860 H       
  41 H41           -0.9882     3.6087    -1.4736 H       
  42 H42           -0.4938    -0.1900     0.2073 H       
  43 H43           -1.9096     0.1479    -0.8169 H       
  44 H44           -3.1740     1.5313     0.1626 H       
  45 H45           -0.4088     3.8292     3.5515 H       
  46 H46           -4.2087     2.3130     2.2337 H       
  47 H47           -2.6290     4.4803     4.7631 H       
  48 H48           -3.3084     6.1139     8.5160 H       
  49 H49           -7.5733     5.8653     8.7050 H       
  50 H50           -7.4450     4.1875     9.2992 H       
  51 H51           -7.8243     2.7184     8.5776 H       
  52 H52           -3.3589     8.0460    10.0395 H       
  53 H53           -7.6130     7.7980    10.2281 H       
  54 H54           -5.5081     8.8833    10.8980 H       
@<TRIPOS>BOND
   1    1    4 2
   2    2    4 2
   3    3   13 1
   4    3   14 1
   5    3   15 1
   6    4   16 1
   7    5    6 1
   8    5   25 1
   9    5   26 1
  10    6   23 2
  11    7   25 1
  12    7   50 1
  13    7   51 1
  14    8   29 3
  15    9   32 3
  16   10   11 1
  17   10   12 1
  18   10   34 1
  19   10   35 1
  20   11   13 1
  21   11   36 1
  22   11   37 1
  23   12   14 1
  24   12   38 1
  25   12   39 1
  26   13   40 1
  27   13   41 1
  28   14   42 1
  29   14   43 1
  30   15   16 ar
  31   15   17 ar
  32   16   18 ar
  33   17   19 ar
  34   17   44 1
  35   18   20 ar
  36   18   45 1
  37   19   20 ar
  38   19   46 1
  39   20   21 1
  40   21   22 2
  41   21   47 1
  42   22   23 1
  43   22   29 1
  44   23   24 1
  45   24   25 2
  46   24   32 1
  47   26   27 ar
  48   26   28 ar
  49   27   30 ar
  50   27   48 1
  51   28   31 ar
  52   28   49 1
  53   30   33 ar
  54   30   52 1
  55   31   33 ar
  56   31   53 1
  57   33   54 1

#	End of record

#	Name: 5286059
#	Creating user name:	landrgr1
#	Creation time:	28. 01. 2015 13:52

#	Modifying user name:	landrgr1
#	Modification time:	28. 01. 2015 13:52

#	Program:	corina 3.48 0006  22.01.2010

@<TRIPOS>MOLECULE
5286059
  40   41    0    0    0
SMALL
NO_CHARGES


@<TRIPOS>ATOM
   1 O1            -0.0164     1.3548     0.0095 O.3     
   2 O2             2.3611    10.8545     0.0383 O.3     
   3 O3            -0.0970     3.9604     0.0243 O.2     
   4 N4             2.0878     4.3474     0.0055 N.am    
   5 N5             1.8854     5.7337     0.0148 N.2     
   6 C6             0.0021    -0.0041     0.0020 C.ar    
   7 C7             0.0230    -0.7053     1.1989 C.ar    
   8 C8            -0.0057    -0.6924    -1.2024 C.ar    
   9 C9             0.0417    -2.0865     1.1886 C.ar    
  10 C10            0.0131    -2.0738    -1.2074 C.ar    
  11 C11            0.0401    -2.7702    -0.0132 C.ar    
  12 C12            0.0257     0.0392     2.5092 C.3     
  13 C13           -0.0351     0.0660    -2.5043 C.3     
  14 C14            1.2479     2.0208     0.0010 C.3     
  15 C15            1.0302     3.5120     0.0111 C.2     
  16 C16            3.5552    10.2279     0.0230 C.2     
  17 C17            4.5337    11.1830     0.0188 C.2     
  18 C18            3.7664     8.7813     0.0133 C.2     
  19 C19            3.8823    12.4288     0.0322 C.2     
  20 C20            2.7039     7.9420     0.0189 C.2     
  21 C21            2.5552    12.1833     0.0439 C.2     
  22 C22            2.9083     6.5418     0.0094 C.2     
  23 H23            0.0580    -2.6329     2.1201 H       
  24 H24            0.0071    -2.6101    -2.1447 H       
  25 H25            0.0555    -3.8501    -0.0191 H       
  26 H26           -1.0012     0.2050     2.8350 H       
  27 H27            0.5547    -0.5481     3.2597 H       
  28 H28            0.5256     0.9993     2.3805 H       
  29 H29            0.9852     0.2632    -2.8331 H       
  30 H30           -0.5517    -0.5273    -3.2589 H       
  31 H31           -0.5603     1.0106    -2.3627 H       
  32 H32            1.8173     1.7308     0.8840 H       
  33 H33            1.8003     1.7403    -0.8958 H       
  34 H34            2.9890     3.9889    -0.0051 H       
  35 H35            5.6003    11.0133     0.0080 H       
  36 H36            4.7698     8.3822     0.0015 H       
  37 H37            4.3550    13.3998     0.0334 H       
  38 H38            1.7004     8.3412     0.0306 H       
  39 H39            1.7773    12.9323     0.0552 H       
  40 H40            3.9118     6.1426    -0.0023 H       
@<TRIPOS>BOND
   1    1    6 1
   2    1   14 1
   3    2   16 1
   4    2   21 1
   5    3   15 2
   6    4    5 1
   7    4   15 am
   8    4   34 1
   9    5   22 2
  10    6    7 ar
  11    6    8 ar
  12    7    9 ar
  13    7   12 1
  14    8   10 ar
  15    8   13 1
  16    9   11 ar
  17    9   23 1
  18   10   11 ar
  19   10   24 1
  20   11   25 1
  21   12   26 1
  22   12   27 1
  23   12   28 1
  24   13   29 1
  25   13   30 1
  26   13   31 1
  27   14   15 1
  28   14   32 1
  29   14   33 1
  30   16   17 2
  31   16   18 1
  32   17   19 1
  33   17   35 1
  34   18   20 2
  35   18   36 1
  36   19   21 2
  37   19   37 1
  38   20   22 1
  39   20   38 1
  40   21   39 1
  41   22   40 1

#	End of record

#	Name: 5286043
#	Creating user name:	landrgr1
#	Creation time:	28. 01. 2015 13:52

#	Modifying user name:	landrgr1
#	Modification time:	28. 01. 2015 13:52

#	Program:	corina 3.48 0006  22.01.2010

@<TRIPOS>MOLECULE
5286043
  40   41    0    0    0
SMALL
NO_CHARGES


@<TRIPOS>ATOM
   1 O1            -0.0164     1.3548     0.0095 O.3     
   2 O2             2.3611    10.8545     0.0383 O.3     
   3 O3            -0.0970     3.9604     0.0243 O.2     
   4 N4             2.0878     4.3474     0.0055 N.am    
   5 N5             1.8854     5.7337     0.0148 N.2     
   6 C6            -1.1675    -2.0965     0.0015 C.ar    
   7 C7             0.0396    -2.7702    -0.0141 C.ar    
   8 C8            -1.1889    -0.7151     0.0096 C.ar    
   9 C9             0.0021    -0.0041     0.0020 C.ar    
  10 C10            1.2283    -2.0637    -0.0217 C.ar    
  11 C11            1.2123    -0.6826    -0.0136 C.ar    
  12 C12           -2.4611    -2.8696     0.0039 C.3     
  13 C13            0.0600    -4.2770    -0.0229 C.3     
  14 C14            1.2479     2.0208     0.0010 C.3     
  15 C15            1.0302     3.5120     0.0111 C.2     
  16 C16            3.5552    10.2279     0.0230 C.2     
  17 C17            4.5337    11.1830     0.0188 C.2     
  18 C18            3.7664     8.7813     0.0133 C.2     
  19 C19            3.8823    12.4288     0.0322 C.2     
  20 C20            2.7039     7.9420     0.0189 C.2     
  21 C21            2.5552    12.1833     0.0439 C.2     
  22 C22            2.9083     6.5418     0.0094 C.2     
  23 H23           -2.1322    -0.1892     0.0214 H       
  24 H24            2.1701    -2.5923    -0.0331 H       
  25 H25            2.1410    -0.1313    -0.0199 H       
  26 H26           -2.7652    -3.0658     1.0321 H       
  27 H27           -3.2334    -2.2871    -0.4985 H       
  28 H28           -2.3204    -3.8149    -0.5201 H       
  29 H29            0.0549    -4.6344    -1.0526 H       
  30 H30            0.9598    -4.6311     0.4802 H       
  31 H31           -0.8199    -4.6554     0.4973 H       
  32 H32            1.8173     1.7308     0.8840 H       
  33 H33            1.8003     1.7403    -0.8958 H       
  34 H34            2.9890     3.9889    -0.0051 H       
  35 H35            5.6003    11.0133     0.0080 H       
  36 H36            4.7698     8.3822     0.0015 H       
  37 H37            4.3550    13.3998     0.0334 H       
  38 H38            1.7004     8.3412     0.0306 H       
  39 H39            1.7773    12.9323     0.0552 H       
  40 H40            3.9118     6.1426    -0.0023 H       
@<TRIPOS>BOND
   1    1    9 1
   2    1   14 1
   3    2   16 1
   4    2   21 1
   5    3   15 2
   6    4    5 1
   7    4   15 am
   8    4   34 1
   9    5   22 2
  10    6    7 ar
  11    6    8 ar
  12    6   12 1
  13    7   10 ar
  14    7   13 1
  15    8    9 ar
  16    8   23 1
  17    9   11 ar
  18   10   11 ar
  19   10   24 1
  20   11   25 1
  21   12   26 1
  22   12   27 1
  23   12   28 1
  24   13   29 1
  25   13   30 1
  26   13   31 1
  27   14   15 1
  28   14   32 1
  29   14   33 1
  30   16   17 2
  31   16   18 1
  32   17   19 1
  33   17   35 1
  34   18   20 2
  35   18   36 1
  36   19   21 2
  37   19   37 1
  38   20   22 1
  39   20   38 1
  40   21   39 1
  41   22   40 1

#	End of record

#	Name: 5233936
#	Creating user name:	landrgr1
#	Creation time:	28. 01. 2015 13:52

#	Modifying user name:	landrgr1
#	Modification time:	28. 01. 2015 13:52

#	Program:	corina 3.48 0006  22.01.2010

@<TRIPOS>MOLECULE
5233936
  58   61    0    0    0
SMALL
NO_CHARGES


@<TRIPOS>ATOM
   1 S1             1.1741     0.5300    -0.6781 S.o2    
   2 O2            -0.7251    10.0677    -4.2283 O.3     
   3 O3             1.1632     6.9014    -6.9351 O.2     
   4 O4             1.1263    -0.8877    -0.7622 O.2     
   5 O5             1.9052     1.2959    -1.6258 O.2     
   6 N6             0.3641     6.0565    -5.0427 N.am    
   7 N7             0.1692     5.0348    -4.1155 N.2     
   8 N8            -0.3975     1.0051    -0.8942 N.am    
   9 C9            -0.1814     7.3080    -4.4933 C.3     
  10 C10           -0.7267     6.8897    -3.1134 C.3     
  11 C11           -0.4211     5.4110    -3.0341 C.2     
  12 C12            0.9066     8.3399    -4.3431 C.ar    
  13 C13           -0.7490     4.5342    -1.8943 C.ar    
  14 C14            0.5780     9.6820    -4.2165 C.ar    
  15 C15            0.9601     5.9218    -6.2440 C.2     
  16 C16            2.2315     7.9498    -4.3255 C.ar    
  17 C17           -0.4164     3.1794    -1.9346 C.ar    
  18 C18           -1.3886     5.0583    -0.7677 C.ar    
  19 C19            1.5817    10.6293    -4.0784 C.ar    
  20 C20            1.3667     4.5836    -6.7213 C.ar    
  21 C21            3.2303     8.8962    -4.1877 C.ar    
  22 C22           -0.7281     2.3620    -0.8591 C.ar    
  23 C23            2.9057    10.2346    -4.0672 C.ar    
  24 C24           -1.6945     4.2356     0.2966 C.ar    
  25 C25           -1.3700     2.8923     0.2540 C.ar    
  26 C26            2.1091     4.4540    -7.8964 C.ar    
  27 C27            1.0150     3.4438    -5.9959 C.ar    
  28 C28           -0.9891    11.4656    -4.0933 C.3     
  29 C29            2.4858     3.2018    -8.3360 C.ar    
  30 C30            1.3982     2.1976    -6.4467 C.ar    
  31 C31           -2.4998    11.7050    -4.1286 C.3     
  32 C32            2.1291     2.0759    -7.6153 C.ar    
  33 C33            1.5773     1.0543     1.0110 C.3     
  34 H34           -0.9853     7.6859    -5.1250 H       
  35 H35           -0.2115     7.4297    -2.3190 H       
  36 H36           -1.8017     7.0614    -3.0590 H       
  37 H37            2.4876     6.9048    -4.4192 H       
  38 H38            0.0817     2.7692    -2.8007 H       
  39 H39           -1.6434     6.1071    -0.7303 H       
  40 H40            1.3285    11.6746    -3.9801 H       
  41 H41            4.2657     8.5892    -4.1739 H       
  42 H42            3.6876    10.9719    -3.9600 H       
  43 H43           -2.1884     4.6425     1.1666 H       
  44 H44           -1.6122     2.2535     1.0906 H       
  45 H45            2.3876     5.3320    -8.4602 H       
  46 H46            0.4446     3.5375    -5.0836 H       
  47 H47           -1.0884     0.3413    -1.0452 H       
  48 H48           -0.5869    11.8214    -3.1448 H       
  49 H49           -0.5164    12.0055    -4.9138 H       
  50 H50            3.0602     3.1001    -9.2449 H       
  51 H51            1.1268     1.3150    -5.8865 H       
  52 H52           -2.9021    11.3492    -5.0772 H       
  53 H53           -2.9725    11.1651    -3.3081 H       
  54 H54           -2.7012    12.7713    -4.0257 H       
  55 H55            2.4259     1.0978    -7.9642 H       
  56 H56            2.5813     0.7157     1.2667 H       
  57 H57            1.5335     2.1416     1.0742 H       
  58 H58            0.8594     0.6207     1.7072 H       
@<TRIPOS>BOND
   1    1    4 2
   2    1    5 2
   3    1    8 am
   4    1   33 1
   5    2   14 1
   6    2   28 1
   7    3   15 2
   8    6    7 1
   9    6    9 1
  10    6   15 am
  11    7   11 2
  12    8   22 1
  13    8   47 1
  14    9   10 1
  15    9   12 1
  16    9   34 1
  17   10   11 1
  18   10   35 1
  19   10   36 1
  20   11   13 1
  21   12   14 ar
  22   12   16 ar
  23   13   17 ar
  24   13   18 ar
  25   14   19 ar
  26   15   20 1
  27   16   21 ar
  28   16   37 1
  29   17   22 ar
  30   17   38 1
  31   18   24 ar
  32   18   39 1
  33   19   23 ar
  34   19   40 1
  35   20   26 ar
  36   20   27 ar
  37   21   23 ar
  38   21   41 1
  39   22   25 ar
  40   23   42 1
  41   24   25 ar
  42   24   43 1
  43   25   44 1
  44   26   29 ar
  45   26   45 1
  46   27   30 ar
  47   27   46 1
  48   28   31 1
  49   28   48 1
  50   28   49 1
  51   29   32 ar
  52   29   50 1
  53   30   32 ar
  54   30   51 1
  55   31   52 1
  56   31   53 1
  57   31   54 1
  58   32   55 1
  59   33   56 1
  60   33   57 1
  61   33   58 1

#	End of record

#	Name: 5225397
#	Creating user name:	landrgr1
#	Creation time:	28. 01. 2015 13:52

#	Modifying user name:	landrgr1
#	Modification time:	28. 01. 2015 13:52

#	Program:	corina 3.48 0006  22.01.2010

@<TRIPOS>MOLECULE
5225397
  47   49    0    0    0
SMALL
NO_CHARGES


@<TRIPOS>ATOM
   1 O1             0.1501     1.9866    -0.2427 O.3     
   2 O2            -2.3235    -1.1196    -4.9133 O.2     
   3 N3            -0.0767     0.2309    -4.9954 N.pl3   
   4 N4             0.1381     0.3575    -2.5732 N.pl3   
   5 N5             1.6416    -0.7507    -4.0574 N.2     
   6 N6            -3.7471     0.5584    -5.1961 N.am    
   7 C7             0.6645    -0.3466    -6.0134 C.ar    
   8 C8             0.5635    -0.0455    -3.8214 C.2     
   9 C9            -1.3137     1.0004    -5.1501 C.3     
  10 C10            1.7601    -0.9701    -5.3934 C.ar    
  11 C11            0.9135    -0.0024    -1.3835 C.3     
  12 C12            0.2287     0.5636    -0.1378 C.3     
  13 C13            0.5227    -0.4060    -7.3910 C.ar    
  14 C14           -2.4967     0.0695    -5.0779 C.2     
  15 C15            2.6990    -1.6467    -6.1753 C.ar    
  16 C16            1.4593    -1.0782    -8.1496 C.ar    
  17 C17            2.5422    -1.6960    -7.5427 C.ar    
  18 C18            1.0386     0.1878     1.1046 C.3     
  19 C19           -4.8384    -0.3160    -5.2451 C.ar    
  20 C20           -6.0990     0.1221    -4.8603 C.ar    
  21 C21           -4.6645    -1.6218    -5.6838 C.ar    
  22 C22           -7.1740    -0.7433    -4.9098 C.ar    
  23 C23           -6.2934     1.5403    -4.3889 C.3     
  24 C24           -5.7439    -2.4826    -5.7309 C.ar    
  25 C25           -6.9964    -2.0450    -5.3418 C.ar    
  26 H26           -1.3840     1.7398    -4.3523 H       
  27 H27           -1.3083     1.5068    -6.1154 H       
  28 H28            0.9735    -1.0878    -1.3035 H       
  29 H29            1.9183     0.4120    -1.4656 H       
  30 H30           -0.6746     0.8792    -2.4828 H       
  31 H31           -0.7761     0.1493    -0.0557 H       
  32 H32           -0.3191     0.0724    -7.8696 H       
  33 H33            3.5453    -2.1294    -5.7092 H       
  34 H34            1.3478    -1.1238    -9.2228 H       
  35 H35            3.2685    -2.2193    -8.1469 H       
  36 H36           -3.8905     1.5164    -5.2473 H       
  37 H37            0.5507     0.5910     1.9920 H       
  38 H38            1.0986    -0.8976     1.1846 H       
  39 H39            2.0434     0.6021     1.0225 H       
  40 H40           -3.6864    -1.9641    -5.9882 H       
  41 H41            1.0094     2.4235    -0.3192 H       
  42 H42           -8.1544    -0.4033    -4.6104 H       
  43 H43           -6.5325     2.1768    -5.2408 H       
  44 H44           -7.1107     1.5749    -3.6687 H       
  45 H45           -5.3774     1.8948    -3.9163 H       
  46 H46           -5.6093    -3.4983    -6.0724 H       
  47 H47           -7.8386    -2.7200    -5.3792 H       
@<TRIPOS>BOND
   1    1   12 1
   2    1   41 1
   3    2   14 2
   4    3    7 1
   5    3    8 1
   6    3    9 1
   7    4    8 1
   8    4   11 1
   9    4   30 1
  10    5    8 2
  11    5   10 1
  12    6   14 am
  13    6   19 1
  14    6   36 1
  15    7   10 ar
  16    7   13 ar
  17    9   14 1
  18    9   26 1
  19    9   27 1
  20   10   15 ar
  21   11   12 1
  22   11   28 1
  23   11   29 1
  24   12   18 1
  25   12   31 1
  26   13   16 ar
  27   13   32 1
  28   15   17 ar
  29   15   33 1
  30   16   17 ar
  31   16   34 1
  32   17   35 1
  33   18   37 1
  34   18   38 1
  35   18   39 1
  36   19   20 ar
  37   19   21 ar
  38   20   22 ar
  39   20   23 1
  40   21   24 ar
  41   21   40 1
  42   22   25 ar
  43   22   42 1
  44   23   43 1
  45   23   44 1
  46   23   45 1
  47   24   25 ar
  48   24   46 1
  49   25   47 1

#	End of record

#	Name: 5222827
#	Creating user name:	landrgr1
#	Creation time:	28. 01. 2015 13:52

#	Modifying user name:	landrgr1
#	Modification time:	28. 01. 2015 13:52

#	Program:	corina 3.48 0006  22.01.2010

@<TRIPOS>MOLECULE
5222827
  49   52    0    0    0
SMALL
NO_CHARGES


@<TRIPOS>ATOM
   1 O1            -0.0174     1.4288     0.0099 O.3     
   2 O2             1.3680    -0.4497    -0.0300 O.3     
   3 O3            -7.2803     0.8737    -1.6072 O.2     
   4 O4            -4.4461    -1.4259     1.1438 O.2     
   5 N5            -6.9941    -1.2679    -0.9169 N.am    
   6 N6            -2.7936    -0.4157     0.0617 N.am    
   7 C7            -8.3277    -1.4896    -0.3523 C.3     
   8 C8            -4.6244    -1.4897    -1.2086 C.3     
   9 C9            -5.9272    -2.2754    -0.9412 C.3     
  10 C10           -8.5893    -0.4916     0.7894 C.3     
  11 C11           -9.4057    -1.2259    -1.4238 C.3     
  12 C12            0.0021    -0.0041     0.0020 C.3     
  13 C13           -5.1576    -0.2395    -1.9482 C.3     
  14 C14           -9.8171     0.3438     0.3717 C.3     
  15 C15          -10.5641    -0.5591    -0.6411 C.3     
  16 C16           -0.6754    -0.5344     1.2672 C.3     
  17 C17           -0.7305    -0.5218    -1.2372 C.3     
  18 C18           -2.1237    -0.0371     1.3133 C.3     
  19 C19           -2.1794    -0.0248    -1.2145 C.3     
  20 C20           -6.5924    -0.1175    -1.4844 C.2     
  21 C21           -3.9493    -1.1088     0.0838 C.2     
  22 C22            1.3537     1.8756    -0.0008 C.3     
  23 C23            2.1276     0.6455     0.5358 C.3     
  24 H24           -8.4108    -2.5112     0.0185 H       
  25 H25           -3.9489    -2.0598    -1.8465 H       
  26 H26           -5.8690    -2.7864     0.0199 H       
  27 H27           -6.1052    -2.9941    -1.7411 H       
  28 H28           -8.8002    -1.0289     1.7140 H       
  29 H29           -7.7240     0.1577     0.9233 H       
  30 H30           -9.0248    -0.5508    -2.1901 H       
  31 H31           -9.7370    -2.1634    -1.8704 H       
  32 H32           -4.5878     0.6447    -1.6626 H       
  33 H33           -5.1172    -0.3884    -3.0273 H       
  34 H34          -10.4487     0.5518     1.2355 H       
  35 H35           -9.5027     1.2724    -0.1046 H       
  36 H36          -11.1859     0.0394    -1.3069 H       
  37 H37          -11.1619    -1.3088    -0.1227 H       
  38 H38           -0.6651    -1.6243     1.2557 H       
  39 H39           -0.1390    -0.1744     2.1451 H       
  40 H40           -0.2333    -0.1527    -2.1343 H       
  41 H41           -0.7197    -1.6118    -1.2373 H       
  42 H42           -2.1344     1.0476     1.4199 H       
  43 H43           -2.6403    -0.4944     2.1572 H       
  44 H44           -2.7328    -0.4741    -2.0391 H       
  45 H45           -2.1948     1.0609    -1.3100 H       
  46 H46            1.6718     2.1185    -1.0147 H       
  47 H47            1.4850     2.7319     0.6608 H       
  48 H48            2.1044     0.6147     1.6251 H       
  49 H49            3.1538     0.6394     0.1685 H       
@<TRIPOS>BOND
   1    1   12 1
   2    1   22 1
   3    2   12 1
   4    2   23 1
   5    3   20 2
   6    4   21 2
   7    5    7 1
   8    5    9 1
   9    5   20 am
  10    6   18 1
  11    6   19 1
  12    6   21 am
  13    7   10 1
  14    7   11 1
  15    7   24 1
  16    8    9 1
  17    8   13 1
  18    8   21 1
  19    8   25 1
  20    9   26 1
  21    9   27 1
  22   10   14 1
  23   10   28 1
  24   10   29 1
  25   11   15 1
  26   11   30 1
  27   11   31 1
  28   12   16 1
  29   12   17 1
  30   13   20 1
  31   13   32 1
  32   13   33 1
  33   14   15 1
  34   14   34 1
  35   14   35 1
  36   15   36 1
  37   15   37 1
  38   16   18 1
  39   16   38 1
  40   16   39 1
  41   17   19 1
  42   17   40 1
  43   17   41 1
  44   18   42 1
  45   18   43 1
  46   19   44 1
  47   19   45 1
  48   22   23 1
  49   22   46 1
  50   22   47 1
  51   23   48 1
  52   23   49 1

#	End of record

#	Name: 5220364
#	Creating user name:	landrgr1
#	Creation time:	28. 01. 2015 13:52

#	Modifying user name:	landrgr1
#	Modification time:	28. 01. 2015 13:52

#	Program:	corina 3.48 0006  22.01.2010

@<TRIPOS>MOLECULE
5220364
  42   44    0    0    0
SMALL
NO_CHARGES


@<TRIPOS>ATOM
   1 N1            -0.3210     1.6449    -1.9876 N.3     
   2 N2             1.9646     0.1452    -1.4474 N.pl3   
   3 N3             3.1157    -0.6178    -1.6833 N.2     
   4 C4             0.9977     2.2233    -2.2780 C.3     
   5 C5            -0.3377     0.1992    -2.2473 C.3     
   6 C6             2.0394     1.6099    -1.3364 C.3     
   7 C7             0.6493    -0.4972    -1.3044 C.3     
   8 C8            -1.3750     2.3287    -2.7489 C.3     
   9 C9             4.2525    -0.0286    -1.8967 C.2     
  10 C10            5.4361    -0.8237    -2.2689 C.ar    
  11 C11            7.6636    -2.3199    -2.9683 C.ar    
  12 C12            6.6608    -0.1898    -2.4990 C.ar    
  13 C13            5.3369    -2.2132    -2.3867 C.ar    
  14 C14            7.7655    -0.9339    -2.8461 C.ar    
  15 C15            6.4435    -2.9545    -2.7339 C.ar    
  16 C16            8.8545    -3.1199    -3.3427 C.ar    
  17 C17            8.7565    -4.5051    -3.4658 C.ar    
  18 C18           10.0752    -2.4892    -3.5786 C.ar    
  19 C19            9.8683    -5.2445    -3.8146 C.ar    
  20 C20           11.1802    -3.2389    -3.9267 C.ar    
  21 C21           11.0784    -4.6138    -4.0414 C.ar    
  22 H22            1.2698     2.0079    -3.3113 H       
  23 H23            0.9626     3.3024    -2.1282 H       
  24 H24           -1.3413    -0.1898    -2.0752 H       
  25 H25           -0.0470     0.0119    -3.2810 H       
  26 H26            1.8276     1.9106    -0.3103 H       
  27 H27            3.0354     1.9484    -1.6219 H       
  28 H28            0.7263    -1.5519    -1.5688 H       
  29 H29            0.3039    -0.3991    -0.2753 H       
  30 H30           -1.1763     2.2276    -3.8159 H       
  31 H31           -2.3408     1.8808    -2.5152 H       
  32 H32           -1.3899     3.3850    -2.4806 H       
  33 H33            4.3308     1.0444    -1.8015 H       
  34 H34            6.7400     0.8831    -2.4047 H       
  35 H35            4.3926    -2.7048    -2.2049 H       
  36 H36            8.7108    -0.4441    -3.0279 H       
  37 H37            6.3661    -4.0275    -2.8293 H       
  38 H38            7.8124    -4.9986    -3.2883 H       
  39 H39           10.1558    -1.4159    -3.4894 H       
  40 H40            9.7935    -6.3176    -3.9102 H       
  41 H41           12.1263    -2.7514    -4.1100 H       
  42 H42           11.9460    -5.1965    -4.3137 H       
@<TRIPOS>BOND
   1    1    4 1
   2    1    5 1
   3    1    8 1
   4    2    3 1
   5    2    6 1
   6    2    7 1
   7    3    9 2
   8    4    6 1
   9    4   22 1
  10    4   23 1
  11    5    7 1
  12    5   24 1
  13    5   25 1
  14    6   26 1
  15    6   27 1
  16    7   28 1
  17    7   29 1
  18    8   30 1
  19    8   31 1
  20    8   32 1
  21    9   10 1
  22    9   33 1
  23   10   12 ar
  24   10   13 ar
  25   11   14 ar
  26   11   15 ar
  27   11   16 1
  28   12   14 ar
  29   12   34 1
  30   13   15 ar
  31   13   35 1
  32   14   36 1
  33   15   37 1
  34   16   17 ar
  35   16   18 ar
  36   17   19 ar
  37   17   38 1
  38   18   20 ar
  39   18   39 1
  40   19   21 ar
  41   19   40 1
  42   20   21 ar
  43   20   41 1
  44   21   42 1

#	End of record

#	Name: 5220356
#	Creating user name:	landrgr1
#	Creation time:	28. 01. 2015 13:52

#	Modifying user name:	landrgr1
#	Modification time:	28. 01. 2015 13:52

#	Program:	corina 3.48 0006  22.01.2010

@<TRIPOS>MOLECULE
5220356
  36   38    0    0    0
SMALL
NO_CHARGES


@<TRIPOS>ATOM
   1 Cl1           -4.9907     3.5680    -4.0970 Cl      
   2 O2            -0.9975    -0.5614    -0.6990 O.2     
   3 O3            -3.8211    -0.4018    -4.8795 O.2     
   4 O4            -4.9378     1.3433    -5.2772 O.2     
   5 N5            -0.0238     1.3402    -0.0921 N.am    
   6 N6             0.5509     0.6036     2.0656 N.ar    
   7 N7             0.5120     3.2021    -1.4242 N.ar    
   8 N8            -4.1185     0.7463    -4.6020 N.pl3   
   9 C9            -1.9595     1.3718    -1.5890 C.ar    
  10 C10           -0.9657     0.6519    -0.7669 C.2     
  11 C11            0.8405     0.6723     0.7757 C.ar    
  12 C12            0.0906     2.7196    -0.2656 C.ar    
  13 C13           -2.5568     0.7387    -2.6808 C.ar    
  14 C14           -2.3096     2.6867    -1.2741 C.ar    
  15 C15           -3.4843     1.4160    -3.4443 C.ar    
  16 C16           -3.2381     3.3533    -2.0449 C.ar    
  17 C17           -3.8232     2.7216    -3.1304 C.ar    
  18 C18            1.9976     0.0847     0.2778 C.ar    
  19 C19           -0.2393     3.5747     0.7792 C.ar    
  20 C20            2.8465    -0.5748     1.1496 C.ar    
  21 C21           -0.1212     4.9412     0.5937 C.ar    
  22 C22            1.3408    -0.0176     2.9199 C.ar    
  23 C23            0.6348     4.4991    -1.6299 C.ar    
  24 C24            2.5068    -0.6238     2.4945 C.ar    
  25 C25            0.3246     5.4064    -0.6357 C.ar    
  26 H26           -2.2928    -0.2792    -2.9270 H       
  27 H27           -1.8543     3.1802    -0.4281 H       
  28 H28           -3.5098     4.3700    -1.8024 H       
  29 H29            2.2310     0.1418    -0.7751 H       
  30 H30           -0.5834     3.1783     1.7231 H       
  31 H31            3.7524    -1.0411     0.7915 H       
  32 H32           -0.3706     5.6299     1.3873 H       
  33 H33            1.0723    -0.0530     3.9654 H       
  34 H34            0.9821     4.8563    -2.5881 H       
  35 H35            3.1473    -1.1308     3.2009 H       
  36 H36            0.4275     6.4667    -0.8132 H       
@<TRIPOS>BOND
   1    1   17 1
   2    2   10 2
   3    3    8 2
   4    4    8 2
   5    5   10 am
   6    5   11 1
   7    5   12 1
   8    6   11 ar
   9    6   22 ar
  10    7   12 ar
  11    7   23 ar
  12    8   15 1
  13    9   10 1
  14    9   13 ar
  15    9   14 ar
  16   11   18 ar
  17   12   19 ar
  18   13   15 ar
  19   13   26 1
  20   14   16 ar
  21   14   27 1
  22   15   17 ar
  23   16   17 ar
  24   16   28 1
  25   18   20 ar
  26   18   29 1
  27   19   21 ar
  28   19   30 1
  29   20   24 ar
  30   20   31 1
  31   21   25 ar
  32   21   32 1
  33   22   24 ar
  34   22   33 1
  35   23   25 ar
  36   23   34 1
  37   24   35 1
  38   25   36 1

#	End of record

#	Name: 5220101
#	Creating user name:	landrgr1
#	Creation time:	28. 01. 2015 13:52

#	Modifying user name:	landrgr1
#	Modification time:	28. 01. 2015 13:52

#	Program:	corina 3.48 0006  22.01.2010

@<TRIPOS>MOLECULE
5220101
  46   49    0    0    0
SMALL
NO_CHARGES


@<TRIPOS>ATOM
   1 S1            -1.4811    -0.4303    -1.1328 S.3     
   2 F2             6.8907     1.3477    -0.3581 F       
   3 F3             6.7725     0.6077     1.8000 F       
   4 F4             6.1767     2.7544     1.2943 F       
   5 O5             1.3051    -3.7293     0.1500 O.2     
   6 N6             0.8482    -0.2835    -0.0350 N.3     
   7 N7             2.7513    -2.1105     0.7197 N.am    
   8 C8             0.8660    -1.5775    -0.7451 C.3     
   9 C9            -0.5840    -2.0287    -0.9885 C.3     
  10 C10            2.1414     0.1702     0.1762 C.ar    
  11 C11            1.6465    -2.5680     0.0718 C.2     
  12 C12            3.1147    -0.7628     0.5564 C.ar    
  13 C13           -0.0309     0.6464    -0.7762 C.3     
  14 C14            3.5450    -3.0027     1.5684 C.3     
  15 C15            2.4871     1.5009     0.0211 C.ar    
  16 C16            4.4177    -0.3497     0.7685 C.ar    
  17 C17            2.9051    -3.1023     2.9292 C.ar    
  18 C18            4.7540     0.9825     0.6088 C.ar    
  19 C19            3.7923     1.9043     0.2376 C.ar    
  20 C20            2.1891    -4.2330     3.2752 C.ar    
  21 C21            3.0388    -2.0653     3.8334 C.ar    
  22 C22            6.1739     1.4311     0.8404 C.3     
  23 C23            1.6021    -4.3244     4.5233 C.ar    
  24 C24            2.4519    -2.1567     5.0816 C.ar    
  25 C25            2.0481    -5.3659     2.2914 C.3     
  26 C26            3.8250    -0.8355     3.4587 C.3     
  27 C27            1.7315    -3.2852     5.4257 C.ar    
  28 H28            1.3665    -1.4506    -1.7051 H       
  29 H29           -0.9566    -2.6065    -0.1427 H       
  30 H30           -0.6613    -2.6006    -1.9132 H       
  31 H31            0.4435     0.9820    -1.6984 H       
  32 H32           -0.3167     1.4945    -0.1540 H       
  33 H33            3.5887    -3.9925     1.1141 H       
  34 H34            4.5546    -2.6046     1.6699 H       
  35 H35            1.7389     2.2237    -0.2689 H       
  36 H36            5.1716    -1.0665     1.0587 H       
  37 H37            4.0614     2.9431     0.1161 H       
  38 H38            1.0421    -5.2075     4.7934 H       
  39 H39            2.5567    -1.3467     5.7883 H       
  40 H40            2.8047    -6.1229     2.4981 H       
  41 H41            1.0564    -5.8081     2.3862 H       
  42 H42            2.1813    -4.9862     1.2784 H       
  43 H43            3.1596    -0.1054     2.9977 H       
  44 H44            4.2733    -0.4041     4.3537 H       
  45 H45            4.6105    -1.1072     2.7536 H       
  46 H46            1.2726    -3.3565     6.4008 H       
@<TRIPOS>BOND
   1    1    9 1
   2    1   13 1
   3    2   22 1
   4    3   22 1
   5    4   22 1
   6    5   11 2
   7    6    8 1
   8    6   10 1
   9    6   13 1
  10    7   11 am
  11    7   12 1
  12    7   14 1
  13    8    9 1
  14    8   11 1
  15    8   28 1
  16    9   29 1
  17    9   30 1
  18   10   12 ar
  19   10   15 ar
  20   12   16 ar
  21   13   31 1
  22   13   32 1
  23   14   17 1
  24   14   33 1
  25   14   34 1
  26   15   19 ar
  27   15   35 1
  28   16   18 ar
  29   16   36 1
  30   17   20 ar
  31   17   21 ar
  32   18   19 ar
  33   18   22 1
  34   19   37 1
  35   20   23 ar
  36   20   25 1
  37   21   24 ar
  38   21   26 1
  39   23   27 ar
  40   23   38 1
  41   24   27 ar
  42   24   39 1
  43   25   40 1
  44   25   41 1
  45   25   42 1
  46   26   43 1
  47   26   44 1
  48   26   45 1
  49   27   46 1

#	End of record

#	Name: 5219599
#	Creating user name:	landrgr1
#	Creation time:	28. 01. 2015 13:52

#	Modifying user name:	landrgr1
#	Modification time:	28. 01. 2015 13:52

#	Program:	corina 3.48 0006  22.01.2010

@<TRIPOS>MOLECULE
5219599
  50   51    0    0    0
SMALL
NO_CHARGES


@<TRIPOS>ATOM
   1 O1             2.1791    -0.1346     2.1230 O.3     
   2 O2             7.3970     0.6954    -2.7663 O.2     
   3 N3             3.3589    -0.8617    -0.3198 N.3     
   4 N4             7.1443     0.6216    -4.9692 N.am    
   5 C5             1.9410    -1.1475    -0.0567 C.3     
   6 C6             3.7847     0.3553     0.3865 C.3     
   7 C7             1.7308    -1.3146     1.4506 C.3     
   8 C8             3.5560     0.1732     1.8893 C.3     
   9 C9             3.6146    -0.7502    -1.7620 C.3     
  10 C10            5.0285    -0.2113    -1.9891 C.3     
  11 C11            2.5304    -2.5207     1.9474 C.3     
  12 C12            3.9221     1.4655     2.6220 C.3     
  13 C13            5.2948    -0.0951    -3.4913 C.3     
  14 C14            6.6874     0.4356    -3.7150 C.2     
  15 C15            8.4081     1.1852    -5.1770 C.ar    
  16 C16            9.3286     0.5462    -5.9974 C.ar    
  17 C17            8.7425     2.3876    -4.5679 C.ar    
  18 C18           10.5751     1.1051    -6.2005 C.ar    
  19 C19            9.9907     2.9412    -4.7750 C.ar    
  20 C20            8.9678    -0.7558    -6.6650 C.3     
  21 C21            7.7443     3.0877    -3.6822 C.3     
  22 C22           10.9071     2.2996    -5.5880 C.ar    
  23 H23            1.3297    -0.3215    -0.4201 H       
  24 H24            1.6539    -2.0662    -0.5682 H       
  25 H25            4.8435     0.5337     0.1984 H       
  26 H26            3.2029     1.2054     0.0301 H       
  27 H27            0.6716    -1.4699     1.6553 H       
  28 H28            4.1788    -0.6428     2.2560 H       
  29 H29            3.5217    -1.7328    -2.2246 H       
  30 H30            2.8901    -0.0687    -2.2079 H       
  31 H31            5.1215     0.7713    -1.5266 H       
  32 H32            5.7530    -0.8928    -1.5433 H       
  33 H33            2.3834    -2.6368     3.0212 H       
  34 H34            2.1883    -3.4196     1.4345 H       
  35 H35            3.5892    -2.3650     1.7403 H       
  36 H36            3.7554     1.3365     3.6915 H       
  37 H37            4.9716     1.6996     2.4435 H       
  38 H38            3.3001     2.2811     2.2531 H       
  39 H39            5.2019    -1.0777    -3.9538 H       
  40 H40            4.5703     0.5863    -3.9371 H       
  41 H41            6.5971     0.3648    -5.7278 H       
  42 H42           11.2915     0.6085    -6.8381 H       
  43 H43           10.2513     3.8764    -4.3019 H       
  44 H44            8.5169    -0.5533    -7.6364 H       
  45 H45            9.8674    -1.3563    -6.8000 H       
  46 H46            8.2582    -1.2995    -6.0413 H       
  47 H47            7.9556     2.8517    -2.6393 H       
  48 H48            7.8174     4.1648    -3.8331 H       
  49 H49            6.7379     2.7531    -3.9338 H       
  50 H50           11.8825     2.7346    -5.7484 H       
@<TRIPOS>BOND
   1    1    7 1
   2    1    8 1
   3    2   14 2
   4    3    5 1
   5    3    6 1
   6    3    9 1
   7    4   14 am
   8    4   15 1
   9    4   41 1
  10    5    7 1
  11    5   23 1
  12    5   24 1
  13    6    8 1
  14    6   25 1
  15    6   26 1
  16    7   11 1
  17    7   27 1
  18    8   12 1
  19    8   28 1
  20    9   10 1
  21    9   29 1
  22    9   30 1
  23   10   13 1
  24   10   31 1
  25   10   32 1
  26   11   33 1
  27   11   34 1
  28   11   35 1
  29   12   36 1
  30   12   37 1
  31   12   38 1
  32   13   14 1
  33   13   39 1
  34   13   40 1
  35   15   16 ar
  36   15   17 ar
  37   16   18 ar
  38   16   20 1
  39   17   19 ar
  40   17   21 1
  41   18   22 ar
  42   18   42 1
  43   19   22 ar
  44   19   43 1
  45   20   44 1
  46   20   45 1
  47   20   46 1
  48   21   47 1
  49   21   48 1
  50   21   49 1
  51   22   50 1

#	End of record

#	Name: 5219047
#	Creating user name:	landrgr1
#	Creation time:	28. 01. 2015 13:52

#	Modifying user name:	landrgr1
#	Modification time:	28. 01. 2015 13:52

#	Program:	corina 3.48 0006  22.01.2010

@<TRIPOS>MOLECULE
5219047
  35   35    0    0    0
SMALL
NO_CHARGES


@<TRIPOS>ATOM
   1 Cl1            1.3992     8.0550     0.0320 Cl      
   2 O2            -0.0176     1.4478     0.0100 O.3     
   3 O3            -2.3441     0.2498     0.0258 O.2     
   4 O4             3.6220     3.4891    -0.0129 O.3     
   5 O5             2.2026     1.4280    -0.0113 O.2     
   6 N6            -1.6400    -1.8540     0.0078 N.am    
   7 C7            -3.0144    -2.3611     0.0182 C.3     
   8 C8            -3.0463    -3.7608    -0.5987 C.3     
   9 C9            -3.5227    -2.4273     1.4598 C.3     
  10 C10           -2.6573    -3.6761    -2.0760 C.3     
  11 C11           -1.4117    -0.5257     0.0127 C.2     
  12 C12            0.0021    -0.0041     0.0020 C.3     
  13 C13            1.2318     3.5481     0.0094 C.ar    
  14 C14            1.1746     2.0759     0.0020 C.2     
  15 C15            2.4704     4.2057     0.0011 C.ar    
  16 C16            0.0515     4.2973     0.0188 C.ar    
  17 C17            2.5126     5.5914     0.0076 C.ar    
  18 C18            0.1113     5.6730     0.0252 C.ar    
  19 C19            1.3383     6.3201     0.0227 C.ar    
  20 H20           -3.6522    -1.6939    -0.5616 H       
  21 H21           -2.3412    -4.4054    -0.0737 H       
  22 H22           -4.0511    -4.1739    -0.5107 H       
  23 H23           -4.5453    -2.8046     1.4675 H       
  24 H24           -2.8848    -3.0945     2.0396 H       
  25 H25           -3.5000    -1.4301     1.8992 H       
  26 H26           -0.8943    -2.4742    -0.0027 H       
  27 H27           -1.6524    -3.2630    -2.1640 H       
  28 H28           -2.6799    -4.6733    -2.5155 H       
  29 H29           -3.3623    -3.0315    -2.6010 H       
  30 H30            0.5123    -0.3556    -0.8948 H       
  31 H31            0.5293    -0.3651     0.8851 H       
  32 H32           -0.9061     3.7977     0.0207 H       
  33 H33            3.4642     6.1021     0.0013 H       
  34 H34           -0.8011     6.2508     0.0321 H       
  35 H35            3.9478     3.2855    -0.9003 H       
@<TRIPOS>BOND
   1    1   19 1
   2    2   12 1
   3    2   14 1
   4    3   11 2
   5    4   15 1
   6    4   35 1
   7    5   14 2
   8    6    7 1
   9    6   11 am
  10    6   26 1
  11    7    8 1
  12    7    9 1
  13    7   20 1
  14    8   10 1
  15    8   21 1
  16    8   22 1
  17    9   23 1
  18    9   24 1
  19    9   25 1
  20   10   27 1
  21   10   28 1
  22   10   29 1
  23   11   12 1
  24   12   30 1
  25   12   31 1
  26   13   14 1
  27   13   15 ar
  28   13   16 ar
  29   15   17 ar
  30   16   18 ar
  31   16   32 1
  32   17   19 ar
  33   17   33 1
  34   18   19 ar
  35   18   34 1

#	End of record

#	Name: 5218883
#	Creating user name:	landrgr1
#	Creation time:	28. 01. 2015 13:52

#	Modifying user name:	landrgr1
#	Modification time:	28. 01. 2015 13:52

#	Program:	corina 3.48 0006  22.01.2010

@<TRIPOS>MOLECULE
5218883
  54   57    0    0    0
SMALL
NO_CHARGES


@<TRIPOS>ATOM
   1 S1            -0.0172     1.4168     0.0098 S.o2    
   2 O2            -6.7225     4.5072     8.1262 O.3     
   3 O3             0.0021    -0.0041     0.0020 O.2     
   4 O4             1.1617     2.2101     0.0028 O.2     
   5 O5            -3.1681     2.7769     4.7631 O.3     
   6 O6            -5.4756     0.3619     6.0459 O.2     
   7 N7            -0.9002     1.8797    -1.3124 N.am    
   8 N8            -5.1159     2.3798     6.9032 N.am    
   9 C9            -0.7128     3.2090    -1.9097 C.3     
  10 C10           -1.8816     0.9668    -1.9142 C.3     
  11 C11           -0.4223     3.0414    -3.4044 C.3     
  12 C12           -1.5754     0.8294    -3.4089 C.3     
  13 C13           -1.5385     2.2150    -4.0474 C.3     
  14 C14           -6.1787     3.3891     8.8611 C.3     
  15 C15           -7.1767     3.1533    10.0164 C.3     
  16 C16           -7.8704     4.5218    10.1985 C.3     
  17 C17           -0.9297     1.8941     1.4396 C.ar    
  18 C18           -7.2096     5.4226     9.1315 C.3     
  19 C19           -6.0987     2.1513     7.9653 C.3     
  20 C20           -2.5536     1.4073     3.1236 C.ar    
  21 C21           -1.8312     1.0275     1.9898 C.ar    
  22 C22           -0.7267     3.1479     2.0003 C.ar    
  23 C23           -2.3527     2.6774     3.6955 C.ar    
  24 C24           -3.5680     0.7559     3.9516 C.2     
  25 C25           -3.8900     1.6481     4.9235 C.2     
  26 C26           -1.4295     3.5419     3.1181 C.ar    
  27 C27           -4.8760     1.4189     5.9891 C.2     
  28 C28           -4.1397    -0.6258     3.7644 C.3     
  29 H29           -1.6191     3.8000    -1.7776 H       
  30 H30            0.1265     3.7108    -1.4283 H       
  31 H31           -1.8132    -0.0102    -1.4358 H       
  32 H32           -2.8853     1.3709    -1.7825 H       
  33 H33           -0.3764     4.0219    -3.8783 H       
  34 H34            0.5309     2.5289    -3.5346 H       
  35 H35           -0.6092     0.3418    -3.5390 H       
  36 H36           -2.3522     0.2317    -3.8859 H       
  37 H37           -2.4947     2.7158    -3.8954 H       
  38 H38           -1.3470     2.1151    -5.1158 H       
  39 H39           -5.1934     3.6374     9.2555 H       
  40 H40           -7.9045     2.3895     9.7425 H       
  41 H41           -6.6476     2.8693    10.9261 H       
  42 H42           -8.9413     4.4346    10.0145 H       
  43 H43           -7.6844     4.9144    11.1981 H       
  44 H44           -6.3824     5.9827     9.5674 H       
  45 H45           -7.9445     6.1028     8.7012 H       
  46 H46           -7.0758     1.9604     7.5214 H       
  47 H47           -5.7960     1.2904     8.5614 H       
  48 H48           -1.9855     0.0535     1.5494 H       
  49 H49           -0.0104     3.8224     1.5548 H       
  50 H50           -4.6379     3.2226     6.8579 H       
  51 H51           -1.2633     4.5199     3.5451 H       
  52 H52           -3.5389    -1.3460     4.3199 H       
  53 H53           -5.1654    -0.6475     4.1327 H       
  54 H54           -4.1285    -0.8833     2.7053 H       
@<TRIPOS>BOND
   1    1    3 2
   2    1    4 2
   3    1    7 am
   4    1   17 1
   5    2   14 1
   6    2   18 1
   7    5   23 1
   8    5   25 1
   9    6   27 2
  10    7    9 1
  11    7   10 1
  12    8   19 1
  13    8   27 am
  14    8   50 1
  15    9   11 1
  16    9   29 1
  17    9   30 1
  18   10   12 1
  19   10   31 1
  20   10   32 1
  21   11   13 1
  22   11   33 1
  23   11   34 1
  24   12   13 1
  25   12   35 1
  26   12   36 1
  27   13   37 1
  28   13   38 1
  29   14   15 1
  30   14   19 1
  31   14   39 1
  32   15   16 1
  33   15   40 1
  34   15   41 1
  35   16   18 1
  36   16   42 1
  37   16   43 1
  38   17   21 ar
  39   17   22 ar
  40   18   44 1
  41   18   45 1
  42   19   46 1
  43   19   47 1
  44   20   21 ar
  45   20   23 ar
  46   20   24 1
  47   21   48 1
  48   22   26 ar
  49   22   49 1
  50   23   26 ar
  51   24   25 2
  52   24   28 1
  53   25   27 1
  54   26   51 1
  55   28   52 1
  56   28   53 1
  57   28   54 1

#	End of record

#	Name: 5216953
#	Creating user name:	landrgr1
#	Creation time:	28. 01. 2015 13:52

#	Modifying user name:	landrgr1
#	Modification time:	28. 01. 2015 13:52

#	Program:	corina 3.48 0006  22.01.2010

@<TRIPOS>MOLECULE
5216953
  54   56    0    0    0
SMALL
NO_CHARGES


@<TRIPOS>ATOM
   1 S1            -0.2173     2.0641     0.1076 S.3     
   2 O2            -1.4943    -0.3987     0.2961 O.3     
   3 O3            -4.5861    -5.3766     7.4479 O.3     
   4 O4             1.0708     4.5372    -0.0816 O.2     
   5 N5             3.2396     4.0757    -0.0070 N.am    
   6 N6             0.1697    -1.7324     0.4366 N.2     
   7 N7             0.6405    -0.5388     0.3428 N.2     
   8 C8            -2.3979    -3.1517     1.9638 C.3     
   9 C9            -3.3421    -4.3524     2.0509 C.3     
  10 C10           -2.0602    -2.8737     0.4977 C.3     
  11 C11           -3.6748    -4.6262     3.4950 C.ar    
  12 C12           -1.1302    -1.6910     0.4119 C.2     
  13 C13           -4.7696    -4.0160     4.0787 C.ar    
  14 C14           -2.8879    -5.4915     4.2324 C.ar    
  15 C15            3.5744     5.4342    -0.0217 C.ar    
  16 C16           -5.0769    -4.2656     5.4022 C.ar    
  17 C17           -3.1910    -5.7445     5.5563 C.ar    
  18 C18            4.7070     5.8789     0.6473 C.ar    
  19 C19           -4.2859    -5.1294     6.1457 C.ar    
  20 C20            3.1110     7.6800    -0.7228 C.ar    
  21 C21            2.7778     6.3400    -0.7102 C.ar    
  22 C22            5.0348     7.2206     0.6309 C.ar    
  23 C23            4.2363     8.1206    -0.0503 C.ar    
  24 C24           -0.3525     0.3134     0.2542 C.2     
  25 C25            5.5773     4.8988     1.3909 C.3     
  26 C26            1.5838     2.2426     0.1218 C.3     
  27 C27            1.9450     3.7008     0.0037 C.2     
  28 C28            2.2472     8.6634    -1.4696 C.3     
  29 C29           -3.7279    -6.2765     8.1520 C.3     
  30 H30           -2.8820    -2.2766     2.3974 H       
  31 H31           -1.4817    -3.3694     2.5127 H       
  32 H32           -4.2583    -4.1347     1.5020 H       
  33 H33           -2.8580    -5.2275     1.6174 H       
  34 H34           -1.5761    -3.7488     0.0641 H       
  35 H35           -2.9764    -2.6560    -0.0513 H       
  36 H36           -5.3849    -3.3433     3.4996 H       
  37 H37           -2.0358    -5.9703     3.7730 H       
  38 H38           -5.9320    -3.7885     5.8578 H       
  39 H39           -2.5762    -6.4208     6.1317 H       
  40 H40            1.8989     5.9965    -1.2356 H       
  41 H41            5.9156     7.5671     1.1511 H       
  42 H42            4.4948     9.1692    -0.0616 H       
  43 H43            3.9391     3.4038    -0.0045 H       
  44 H44            6.3467     4.5150     0.7209 H       
  45 H45            6.0488     5.4001     2.2362 H       
  46 H46            4.9661     4.0723     1.7534 H       
  47 H47            1.9810     1.8443     1.0555 H       
  48 H48            2.0100     1.6935    -0.7179 H       
  49 H49            1.4755     9.0486    -0.8031 H       
  50 H50            2.8626     9.4886    -1.8280 H       
  51 H51            1.7787     8.1645    -2.3179 H       
  52 H52           -3.7383    -7.2488     7.6594 H       
  53 H53           -2.7119    -5.8818     8.1555 H       
  54 H54           -4.0790    -6.3854     9.1782 H       
@<TRIPOS>BOND
   1    1   24 1
   2    1   26 1
   3    2   12 1
   4    2   24 1
   5    3   19 1
   6    3   29 1
   7    4   27 2
   8    5   15 1
   9    5   27 am
  10    5   43 1
  11    6    7 1
  12    6   12 2
  13    7   24 2
  14    8    9 1
  15    8   10 1
  16    8   30 1
  17    8   31 1
  18    9   11 1
  19    9   32 1
  20    9   33 1
  21   10   12 1
  22   10   34 1
  23   10   35 1
  24   11   13 ar
  25   11   14 ar
  26   13   16 ar
  27   13   36 1
  28   14   17 ar
  29   14   37 1
  30   15   18 ar
  31   15   21 ar
  32   16   19 ar
  33   16   38 1
  34   17   19 ar
  35   17   39 1
  36   18   22 ar
  37   18   25 1
  38   20   21 ar
  39   20   23 ar
  40   20   28 1
  41   21   40 1
  42   22   23 ar
  43   22   41 1
  44   23   42 1
  45   25   44 1
  46   25   45 1
  47   25   46 1
  48   26   27 1
  49   26   47 1
  50   26   48 1
  51   28   49 1
  52   28   50 1
  53   28   51 1
  54   29   52 1
  55   29   53 1
  56   29   54 1

#	End of record

#	Name: 5213585
#	Creating user name:	landrgr1
#	Creation time:	28. 01. 2015 13:52

#	Modifying user name:	landrgr1
#	Modification time:	28. 01. 2015 13:52

#	Program:	corina 3.48 0006  22.01.2010

@<TRIPOS>MOLECULE
5213585
  50   51    0    0    0
SMALL
NO_CHARGES


@<TRIPOS>ATOM
   1 Cl1           -6.4846     4.7937    20.6099 Cl      
   2 S2            -0.0172     1.4168     0.0098 S.o2    
   3 S3            -2.5452     2.7304    16.1960 S.3     
   4 O4            -2.6828     2.8063    10.9969 O.3     
   5 O5             0.0021    -0.0041     0.0020 O.2     
   6 O6             1.1617     2.2101     0.0028 O.2     
   7 O7            -1.5673     2.2232     8.7027 O.2     
   8 O8            -4.3148     3.6611    12.2174 O.2     
   9 N9            -3.1260     3.0414     7.3525 N.am    
  10 N10           -0.9002     1.8797    -1.3124 N.am    
  11 C11           -3.1404     3.0507     4.9069 C.3     
  12 C12           -2.3604     2.6427     3.6837 C.ar    
  13 C13           -2.3678     2.6447     6.1635 C.3     
  14 C14           -2.5586     1.3952     3.1220 C.ar    
  15 C15           -1.4522     3.5186     3.1191 C.ar    
  16 C16           -0.9297     1.8941     1.4396 C.ar    
  17 C17           -1.8430     1.0209     2.0000 C.ar    
  18 C18           -0.7363     3.1441     1.9974 C.ar    
  19 C19           -2.6360     2.7836     8.5813 C.2     
  20 C20           -3.4161     3.1917     9.8044 C.3     
  21 C21           -2.5425     2.7310    13.4607 C.3     
  22 C22           -3.3909     3.1750    14.6541 C.3     
  23 C23           -3.2452     3.1003    12.1797 C.2     
  24 C24           -3.6531     3.3104    17.4373 C.ar    
  25 C25           -3.3408     3.1457    18.7813 C.ar    
  26 C26           -4.8382     3.9386    17.0742 C.ar    
  27 C27           -4.2109     3.6017    19.7517 C.ar    
  28 C28           -5.7043     4.3925    18.0492 C.ar    
  29 C29           -5.3930     4.2223    19.3869 C.ar    
  30 H30           -3.2845     4.1312     4.9022 H       
  31 H31           -4.1110     2.5547     4.9010 H       
  32 H32           -1.3972     3.1407     6.1693 H       
  33 H33           -2.2237     1.5643     6.1681 H       
  34 H34           -3.2711     0.7124     3.5607 H       
  35 H35           -1.3009     4.4950     3.5552 H       
  36 H36           -1.9973     0.0460     1.5616 H       
  37 H37           -0.0260     3.8280     1.5570 H       
  38 H38           -3.9808     3.4896     7.2554 H       
  39 H39           -4.3867     2.6957     9.7986 H       
  40 H40           -3.5601     4.2721     9.7997 H       
  41 H41           -1.5730     3.2275    13.4995 H       
  42 H42           -2.3995     1.6511    13.4984 H       
  43 H43           -4.3605     2.6784    14.6153 H       
  44 H44           -3.5340     4.2549    14.6165 H       
  45 H45           -1.7531     2.3264    -1.1939 H       
  46 H46           -0.5646     1.7043    -2.2054 H       
  47 H47           -2.4187     2.6612    19.0665 H       
  48 H48           -5.0815     4.0720    16.0304 H       
  49 H49           -3.9689     3.4737    20.7964 H       
  50 H50           -6.6255     4.8808    17.7676 H       
@<TRIPOS>BOND
   1    1   29 1
   2    2    5 2
   3    2    6 2
   4    2   10 am
   5    2   16 1
   6    3   22 1
   7    3   24 1
   8    4   20 1
   9    4   23 1
  10    7   19 2
  11    8   23 2
  12    9   13 1
  13    9   19 am
  14    9   38 1
  15   10   45 1
  16   10   46 1
  17   11   12 1
  18   11   13 1
  19   11   30 1
  20   11   31 1
  21   12   14 ar
  22   12   15 ar
  23   13   32 1
  24   13   33 1
  25   14   17 ar
  26   14   34 1
  27   15   18 ar
  28   15   35 1
  29   16   17 ar
  30   16   18 ar
  31   17   36 1
  32   18   37 1
  33   19   20 1
  34   20   39 1
  35   20   40 1
  36   21   22 1
  37   21   23 1
  38   21   41 1
  39   21   42 1
  40   22   43 1
  41   22   44 1
  42   24   25 ar
  43   24   26 ar
  44   25   27 ar
  45   25   47 1
  46   26   28 ar
  47   26   48 1
  48   27   29 ar
  49   27   49 1
  50   28   29 ar
  51   28   50 1

#	End of record

#	Name: 5213185
#	Creating user name:	landrgr1
#	Creation time:	28. 01. 2015 13:52

#	Modifying user name:	landrgr1
#	Modification time:	28. 01. 2015 13:52

#	Program:	corina 3.48 0006  22.01.2010

@<TRIPOS>MOLECULE
5213185
  44   47    0    0    0
SMALL
NO_CHARGES


@<TRIPOS>ATOM
   1 S1             0.1739     1.5190     0.2536 S.o2    
   2 S2            -1.0553     3.3432     2.4745 S.3     
   3 O3             0.5314     0.1438     0.2706 O.2     
   4 O4             1.1297     2.5702     0.2262 O.2     
   5 O5            -2.2488     1.9794    -3.6105 O.3     
   6 O6            -1.3159    -0.4259    -1.1281 O.2     
   7 O7             3.4710     1.2691    -3.5278 O.3     
   8 O8             2.2856     4.6239    -3.1184 O.2     
   9 N9            -0.7956     1.7338    -1.0717 N.am    
  10 N10            1.0454     2.7935    -2.8949 N.am    
  11 C11           -0.9876     3.0167    -1.5978 C.ar    
  12 C12           -0.0702     3.5448    -2.5067 C.ar    
  13 C13           -0.8244     1.7913     1.6798 C.2     
  14 C14           -1.3997     0.6735    -1.6436 C.2     
  15 C15           -2.0934     3.7644    -1.2216 C.ar    
  16 C16           -0.2665     4.8165    -3.0240 C.ar    
  17 C17           -2.1580     0.8443    -2.8869 C.2     
  18 C18           -2.2809     5.0312    -1.7426 C.ar    
  19 C19           -1.3687     5.5567    -2.6389 C.ar    
  20 C20           -1.5212     0.8521     2.3213 C.2     
  21 C21           -2.2343     1.3025     3.4189 C.2     
  22 C22            2.2172     3.4091    -3.1489 C.2     
  23 C23           -2.8964    -0.1175    -3.5151 C.2     
  24 C24           -2.1166     2.6075     3.6687 C.2     
  25 C25            3.4095     2.6152    -3.4620 C.2     
  26 C26           -3.4462     0.4797    -4.6602 C.2     
  27 C27           -3.0248     1.7634    -4.6807 C.2     
  28 C28            4.6526     3.1089    -3.7375 C.2     
  29 C29            5.4825     2.0022    -3.9762 C.2     
  30 C30            4.7194     0.8957    -3.8376 C.2     
  31 H31           -2.8081     3.3570    -0.5220 H       
  32 H32            0.4418     5.2286    -3.7275 H       
  33 H33            0.9750     1.8299    -2.9811 H       
  34 H34           -3.1426     5.6121    -1.4485 H       
  35 H35           -1.5201     6.5469    -3.0428 H       
  36 H36           -1.5288    -0.1814     2.0080 H       
  37 H37           -2.8404     0.6471     4.0268 H       
  38 H38           -3.0307    -1.1397    -3.1936 H       
  39 H39           -2.5989     3.1321     4.4803 H       
  40 H40           -4.0856     0.0027    -5.3883 H       
  41 H41           -3.2732     2.4950    -5.4353 H       
  42 H42            4.9412     4.1492    -3.7668 H       
  43 H43            6.5332     2.0300    -4.2243 H       
  44 H44            5.0600    -0.1222    -3.9571 H       
@<TRIPOS>BOND
   1    1    3 2
   2    1    4 2
   3    1    9 am
   4    1   13 1
   5    2   13 1
   6    2   24 1
   7    5   17 1
   8    5   27 1
   9    6   14 2
  10    7   25 1
  11    7   30 1
  12    8   22 2
  13    9   11 1
  14    9   14 am
  15   10   12 1
  16   10   22 am
  17   10   33 1
  18   11   12 ar
  19   11   15 ar
  20   12   16 ar
  21   13   20 2
  22   14   17 1
  23   15   18 ar
  24   15   31 1
  25   16   19 ar
  26   16   32 1
  27   17   23 2
  28   18   19 ar
  29   18   34 1
  30   19   35 1
  31   20   21 1
  32   20   36 1
  33   21   24 2
  34   21   37 1
  35   22   25 1
  36   23   26 1
  37   23   38 1
  38   24   39 1
  39   25   28 2
  40   26   27 2
  41   26   40 1
  42   27   41 1
  43   28   29 1
  44   28   42 1
  45   29   30 2
  46   29   43 1
  47   30   44 1

#	End of record

#	Name: 5207633
#	Creating user name:	landrgr1
#	Creation time:	28. 01. 2015 13:52

#	Modifying user name:	landrgr1
#	Modification time:	28. 01. 2015 13:52

#	Program:	corina 3.48 0006  22.01.2010

@<TRIPOS>MOLECULE
5207633
  47   48    0    0    0
SMALL
NO_CHARGES


@<TRIPOS>ATOM
   1 O1            -0.0161     1.3381     0.0094 O.3     
   2 O2             0.6361    -4.4068     0.2764 O.2     
   3 O3             1.0565    -0.5939    -0.0112 O.2     
   4 N4            -0.3126    -2.6466     1.2427 N.am    
   5 C5            -0.9927    -2.2755    -0.0007 C.3     
   6 C6            -2.2833    -3.0450    -0.1163 C.ar    
   7 C7            -1.2926    -0.7753     0.0102 C.3     
   8 C8            -2.6795    -3.5501    -1.3406 C.ar    
   9 C9            -3.0681    -3.2505     1.0029 C.ar    
  10 C10            0.4829    -3.7340     1.2770 C.2     
  11 C11            0.0021    -0.0041     0.0020 C.2     
  12 C12           -4.6508    -4.4569    -0.3284 C.ar    
  13 C13           -3.8633    -4.2559    -1.4467 C.ar    
  14 C14           -4.2519    -3.9563     0.8968 C.ar    
  15 C15            1.1692    -4.1085     2.5319 C.ar    
  16 C16           -5.9416    -5.2259    -0.4442 C.3     
  17 C17            1.9938    -5.2340     2.5708 C.ar    
  18 C18            1.0000    -3.3348     3.6812 C.ar    
  19 C19            2.4551    -4.8097     4.8821 C.ar    
  20 C20            2.6316    -5.5777     3.7448 C.ar    
  21 C21            1.6436    -3.6896     4.8487 C.ar    
  22 C22            1.2685     2.0148     0.0008 C.3     
  23 C23            3.1546    -5.1914     6.1611 C.3     
  24 C24            1.0475     3.5287     0.0110 C.3     
  25 H25           -0.3515    -2.5117    -0.8499 H       
  26 H26           -1.8762    -0.5150    -0.8728 H       
  27 H27           -1.8592    -0.5245     0.9070 H       
  28 H28           -0.4349    -2.1097     2.0413 H       
  29 H29           -2.0643    -3.3931    -2.2142 H       
  30 H30           -2.7562    -2.8600     1.9603 H       
  31 H31           -4.1732    -4.6499    -2.4033 H       
  32 H32           -4.8649    -4.1172     1.7713 H       
  33 H33           -5.7497    -6.2855    -0.2750 H       
  34 H34           -6.6496    -4.8615     0.3001 H       
  35 H35           -6.3591    -5.0870    -1.4414 H       
  36 H36            2.1318    -5.8347     1.6840 H       
  37 H37            0.3668    -2.4602     3.6564 H       
  38 H38            3.2699    -6.4483     3.7763 H       
  39 H39            1.5135    -3.0918     5.7387 H       
  40 H40            1.8379     1.7248     0.8838 H       
  41 H41            1.8209     1.7343    -0.8960 H       
  42 H42            4.1282    -4.7030     6.2025 H       
  43 H43            2.5528    -4.8747     7.0129 H       
  44 H44            3.2889    -6.2727     6.1931 H       
  45 H45            0.4951     3.8092     0.9078 H       
  46 H46            2.0118     4.0367     0.0045 H       
  47 H47            0.4781     3.8188    -0.8720 H       
@<TRIPOS>BOND
   1    1   11 1
   2    1   22 1
   3    2   10 2
   4    3   11 2
   5    4    5 1
   6    4   10 am
   7    4   28 1
   8    5    6 1
   9    5    7 1
  10    5   25 1
  11    6    8 ar
  12    6    9 ar
  13    7   11 1
  14    7   26 1
  15    7   27 1
  16    8   13 ar
  17    8   29 1
  18    9   14 ar
  19    9   30 1
  20   10   15 1
  21   12   13 ar
  22   12   14 ar
  23   12   16 1
  24   13   31 1
  25   14   32 1
  26   15   17 ar
  27   15   18 ar
  28   16   33 1
  29   16   34 1
  30   16   35 1
  31   17   20 ar
  32   17   36 1
  33   18   21 ar
  34   18   37 1
  35   19   20 ar
  36   19   21 ar
  37   19   23 1
  38   20   38 1
  39   21   39 1
  40   22   24 1
  41   22   40 1
  42   22   41 1
  43   23   42 1
  44   23   43 1
  45   23   44 1
  46   24   45 1
  47   24   46 1
  48   24   47 1

#	End of record

#	Name: 5203568
#	Creating user name:	landrgr1
#	Creation time:	28. 01. 2015 13:52

#	Modifying user name:	landrgr1
#	Modification time:	28. 01. 2015 13:52

#	Program:	corina 3.48 0006  22.01.2010

@<TRIPOS>MOLECULE
5203568
  55   57    0    0    0
SMALL
NO_CHARGES


@<TRIPOS>ATOM
   1 Cl1           -3.7938     4.0169     4.6180 Cl      
   2 S2            -0.2052     1.5030     0.1427 S.o2    
   3 F3            -1.8588    -3.4477    -2.2102 F       
   4 F4            -0.2785    -2.4995    -3.5603 F       
   5 F5            -2.3381    -3.0178    -4.4022 F       
   6 O6            -0.3136     0.0934     0.2861 O.2     
   7 O7             1.0348     2.1956     0.1865 O.2     
   8 O8             1.0242     1.9178    -3.0939 O.2     
   9 O9            -4.3853     0.1227     3.1157 O.2     
  10 O10           -4.8632     1.7426     4.3799 O.2     
  11 N11           -0.9002     1.8797    -1.3124 N.am    
  12 N12            0.9447     4.0656    -3.6442 N.am    
  13 N13           -4.1650     1.2540     3.5096 N.pl3   
  14 C14           -0.6163     3.1689    -1.9478 C.3     
  15 C15           -1.7571     0.9685    -1.9339 C.ar    
  16 C16            2.0392     3.9059    -4.6048 C.3     
  17 C17           -1.2149     2.2103     1.4017 C.ar    
  18 C18            0.5096     3.0047    -2.9360 C.2     
  19 C19            1.9415     4.9772    -5.6603 C.ar    
  20 C20           -1.2959    -0.2949    -2.2820 C.ar    
  21 C21           -3.0738     1.3213    -2.2000 C.ar    
  22 C22            3.3791     4.0284    -3.8764 C.3     
  23 C23           -2.1458    -1.1936    -2.8959 C.ar    
  24 C24           -2.2566     1.4807     1.9430 C.ar    
  25 C25           -0.9613     3.4928     1.8517 C.ar    
  26 C26           -3.9187     0.4176    -2.8143 C.ar    
  27 C27           -3.4548    -0.8369    -3.1646 C.ar    
  28 C28           -3.0490     2.0350     2.9307 C.ar    
  29 C29            2.2017     4.6703    -6.9828 C.ar    
  30 C30            1.5862     6.2655    -5.3067 C.ar    
  31 C31           -1.7522     4.0477     2.8397 C.ar    
  32 C32           -2.7991     3.3201     3.3777 C.ar    
  33 C33           -1.6463    -2.5642    -3.2739 C.3     
  34 C34            2.1122     5.6530    -7.9509 C.ar    
  35 C35            1.4966     7.2481    -6.2748 C.ar    
  36 C36            1.7619     6.9424    -7.5966 C.ar    
  37 H37           -1.5071     3.5219    -2.4674 H       
  38 H38           -0.3286     3.8937    -1.1863 H       
  39 H39            1.9697     2.9251    -5.0752 H       
  40 H40            0.5332     4.9348    -3.5179 H       
  41 H41           -0.2736    -0.5738    -2.0732 H       
  42 H42           -3.4368     2.3011    -1.9266 H       
  43 H43            3.4486     5.0093    -3.4060 H       
  44 H44            3.4497     3.2536    -3.1130 H       
  45 H45            4.1934     3.9097    -4.5911 H       
  46 H46           -2.4517     0.4774     1.5940 H       
  47 H47           -0.1446     4.0609     1.4312 H       
  48 H48           -4.9428     0.6911    -3.0212 H       
  49 H49           -4.1173    -1.5414    -3.6454 H       
  50 H50            2.4754     3.6629    -7.2596 H       
  51 H51            1.3783     6.5041    -4.2741 H       
  52 H52           -1.5540     5.0495     3.1911 H       
  53 H53            2.3161     5.4133    -8.9840 H       
  54 H54            1.2186     8.2545    -5.9986 H       
  55 H55            1.6923     7.7102    -8.3529 H       
@<TRIPOS>BOND
   1    1   32 1
   2    2    6 2
   3    2    7 2
   4    2   11 am
   5    2   17 1
   6    3   33 1
   7    4   33 1
   8    5   33 1
   9    8   18 2
  10    9   13 2
  11   10   13 2
  12   11   14 1
  13   11   15 1
  14   12   16 1
  15   12   18 am
  16   12   40 1
  17   13   28 1
  18   14   18 1
  19   14   37 1
  20   14   38 1
  21   15   20 ar
  22   15   21 ar
  23   16   19 1
  24   16   22 1
  25   16   39 1
  26   17   24 ar
  27   17   25 ar
  28   19   29 ar
  29   19   30 ar
  30   20   23 ar
  31   20   41 1
  32   21   26 ar
  33   21   42 1
  34   22   43 1
  35   22   44 1
  36   22   45 1
  37   23   27 ar
  38   23   33 1
  39   24   28 ar
  40   24   46 1
  41   25   31 ar
  42   25   47 1
  43   26   27 ar
  44   26   48 1
  45   27   49 1
  46   28   32 ar
  47   29   34 ar
  48   29   50 1
  49   30   35 ar
  50   30   51 1
  51   31   32 ar
  52   31   52 1
  53   34   36 ar
  54   34   53 1
  55   35   36 ar
  56   35   54 1
  57   36   55 1

#	End of record

#	Name: 5201947
#	Creating user name:	landrgr1
#	Creation time:	28. 01. 2015 13:52

#	Modifying user name:	landrgr1
#	Modification time:	28. 01. 2015 13:52

#	Program:	corina 3.48 0006  22.01.2010

@<TRIPOS>MOLECULE
5201947
  49   50    0    0    0
SMALL
NO_CHARGES


@<TRIPOS>ATOM
   1 S1            -0.0172     1.4168     0.0098 S.o2    
   2 O2             0.0021    -0.0041     0.0020 O.2     
   3 O3             1.1903     2.1659     0.0023 O.2     
   4 O4            -3.2689     2.3343    -0.8524 O.2     
   5 N5            -0.7587     1.8230    -1.4141 N.am    
   6 N6            -4.2220     0.6888    -1.9951 N.am    
   7 C7            -0.4131     3.0770    -2.0882 C.3     
   8 C8             0.1349     2.7717    -3.4836 C.3     
   9 C9            -1.6628     3.9511    -2.2111 C.3     
  10 C10            0.4958     4.0813    -4.1876 C.3     
  11 C11           -1.3020     5.2607    -2.9150 C.3     
  12 C12           -0.7539     4.9554    -4.3105 C.3     
  13 C13           -1.7601     0.9284    -1.9997 C.3     
  14 C14           -1.1394     2.0311     1.2958 C.3     
  15 C15           -3.1371     1.3685    -1.5740 C.2     
  16 C16           -5.5607     1.1166    -1.5812 C.3     
  17 C17           -6.5728     0.6519    -2.5964 C.ar    
  18 C18           -5.8911     0.5089    -0.2165 C.3     
  19 C19           -7.6186     1.4801    -2.9588 C.ar    
  20 C20           -6.4523    -0.6003    -3.1693 C.ar    
  21 C21           -8.5471     1.0539    -3.8900 C.ar    
  22 C22           -7.3808    -1.0266    -4.1006 C.ar    
  23 C23           -8.4295    -0.2004    -4.4591 C.ar    
  24 H24            0.3438     3.6048    -1.5080 H       
  25 H25            1.0252     2.1489    -3.3961 H       
  26 H26           -0.6220     2.2439    -4.0638 H       
  27 H27           -2.4198     3.4233    -2.7912 H       
  28 H28           -2.0533     4.1686    -1.2169 H       
  29 H29            1.2527     4.6091    -3.6074 H       
  30 H30            0.8862     3.8638    -5.1818 H       
  31 H31           -2.1923     5.8834    -3.0026 H       
  32 H32           -0.5451     5.7885    -2.3349 H       
  33 H33           -0.4969     5.8884    -4.8120 H       
  34 H34           -1.5109     4.4276    -4.8907 H       
  35 H35           -1.6873     0.9635    -3.0867 H       
  36 H36           -1.5820    -0.0907    -1.6564 H       
  37 H37           -0.8039     1.6766     2.2705 H       
  38 H38           -1.1408     3.1211     1.2864 H       
  39 H39           -2.1478     1.6648     1.1034 H       
  40 H40           -4.1166    -0.0837    -2.5722 H       
  41 H41           -5.5891     2.2040    -1.5112 H       
  42 H42           -5.8627    -0.5785    -0.2865 H       
  43 H43           -5.1590     0.8450     0.5178 H       
  44 H44           -6.8871     0.8272     0.0914 H       
  45 H45           -7.7104     2.4601    -2.5142 H       
  46 H46           -5.6326    -1.2455    -2.8897 H       
  47 H47           -9.3645     1.7006    -4.1727 H       
  48 H48           -7.2864    -2.0048    -4.5485 H       
  49 H49           -9.1551    -0.5336    -5.1864 H       
@<TRIPOS>BOND
   1    1    2 2
   2    1    3 2
   3    1    5 am
   4    1   14 1
   5    4   15 2
   6    5    7 1
   7    5   13 1
   8    6   15 am
   9    6   16 1
  10    6   40 1
  11    7    8 1
  12    7    9 1
  13    7   24 1
  14    8   10 1
  15    8   25 1
  16    8   26 1
  17    9   11 1
  18    9   27 1
  19    9   28 1
  20   10   12 1
  21   10   29 1
  22   10   30 1
  23   11   12 1
  24   11   31 1
  25   11   32 1
  26   12   33 1
  27   12   34 1
  28   13   15 1
  29   13   35 1
  30   13   36 1
  31   14   37 1
  32   14   38 1
  33   14   39 1
  34   16   17 1
  35   16   18 1
  36   16   41 1
  37   17   19 ar
  38   17   20 ar
  39   18   42 1
  40   18   43 1
  41   18   44 1
  42   19   21 ar
  43   19   45 1
  44   20   22 ar
  45   20   46 1
  46   21   23 ar
  47   21   47 1
  48   22   23 ar
  49   22   48 1
  50   23   49 1

#	End of record

#	Name: 5201778
#	Creating user name:	landrgr1
#	Creation time:	28. 01. 2015 13:52

#	Modifying user name:	landrgr1
#	Modification time:	28. 01. 2015 13:52

#	Program:	corina 3.48 0006  22.01.2010

@<TRIPOS>MOLECULE
5201778
  46   48    0    0    0
SMALL
NO_CHARGES


@<TRIPOS>ATOM
   1 F1             1.4887     9.8322     0.0798 F       
   2 O2            -0.1260     1.4355    -0.0943 O.3     
   3 O3             2.0556    -4.5010    -1.3220 O.3     
   4 O4             0.5155    -8.4975    -1.1660 O.2     
   5 O5            -0.1065     4.0344     0.1068 O.2     
   6 N6             0.7665    -4.9369    -0.9305 N.pl3   
   7 N7            -1.3039    -4.9153    -0.2416 N.2     
   8 N8             2.0878     4.3462     0.0055 N.am    
   9 C9            -0.2647    -4.1514    -0.5221 C.2     
  10 C10            0.3123    -6.2458    -0.8960 C.2     
  11 C11           -0.2282    -2.6799    -0.4097 C.ar    
  12 C12           -0.9981    -6.1894    -0.4539 C.2     
  13 C13           -1.4174    -1.9571    -0.2849 C.ar    
  14 C14            0.9960    -2.0065    -0.4220 C.ar    
  15 C15           -0.1596     0.0820    -0.1977 C.ar    
  16 C16            1.0404    -7.4048    -1.2430 C.2     
  17 C17           -1.9159    -7.3670    -0.2495 C.3     
  18 C18           -1.3789    -0.5841    -0.1798 C.ar    
  19 C19            1.0257    -0.6334    -0.3164 C.ar    
  20 C20            2.4687    -7.2861    -1.7087 C.3     
  21 C21            1.1608     2.0563    -0.1197 C.3     
  22 C22            1.0007     3.5495     0.0057 C.2     
  23 C23            1.9358     5.7381     0.0243 C.ar    
  24 C24            0.8891     6.3136     0.7323 C.ar    
  25 C25            2.8348     6.5450    -0.6603 C.ar    
  26 C26            0.7412     7.6867     0.7500 C.ar    
  27 C27            2.6834     7.9176    -0.6401 C.ar    
  28 C28            1.6356     8.4893     0.0619 C.ar    
  29 H29           -2.3655    -2.4741    -0.2712 H       
  30 H30            1.9177    -2.5619    -0.5139 H       
  31 H31           -2.4611    -7.5672    -1.1719 H       
  32 H32           -1.3275    -8.2434     0.0223 H       
  33 H33           -2.6230    -7.1423     0.5490 H       
  34 H34           -2.2976    -0.0247    -0.0836 H       
  35 H35            1.9715    -0.1122    -0.3255 H       
  36 H36            2.8626    -8.2782    -1.9292 H       
  37 H37            2.5077    -6.6716    -2.6081 H       
  38 H38            3.0689    -6.8226    -0.9257 H       
  39 H39            1.7602     1.6841     0.7112 H       
  40 H40            1.6588     1.8220    -1.0605 H       
  41 H41            2.6913    -4.4505    -0.5951 H       
  42 H42            2.9755     3.9554    -0.0078 H       
  43 H43            0.1910     5.6880     1.2685 H       
  44 H44            3.6522     6.0995    -1.2079 H       
  45 H45           -0.0727     8.1347     1.3006 H       
  46 H46            3.3827     8.5456    -1.1721 H       
@<TRIPOS>BOND
   1    1   28 1
   2    2   15 1
   3    2   21 1
   4    3    6 1
   5    3   41 1
   6    4   16 2
   7    5   22 2
   8    6    9 1
   9    6   10 1
  10    7    9 2
  11    7   12 1
  12    8   22 am
  13    8   23 1
  14    8   42 1
  15    9   11 1
  16   10   12 2
  17   10   16 1
  18   11   13 ar
  19   11   14 ar
  20   12   17 1
  21   13   18 ar
  22   13   29 1
  23   14   19 ar
  24   14   30 1
  25   15   18 ar
  26   15   19 ar
  27   16   20 1
  28   17   31 1
  29   17   32 1
  30   17   33 1
  31   18   34 1
  32   19   35 1
  33   20   36 1
  34   20   37 1
  35   20   38 1
  36   21   22 1
  37   21   39 1
  38   21   40 1
  39   23   24 ar
  40   23   25 ar
  41   24   26 ar
  42   24   43 1
  43   25   27 ar
  44   25   44 1
  45   26   28 ar
  46   26   45 1
  47   27   28 ar
  48   27   46 1

#	End of record

#	Name: 5200725
#	Creating user name:	landrgr1
#	Creation time:	28. 01. 2015 13:52

#	Modifying user name:	landrgr1
#	Modification time:	28. 01. 2015 13:52

#	Program:	corina 3.48 0006  22.01.2010

@<TRIPOS>MOLECULE
5200725
  60   62    0    0    0
SMALL
NO_CHARGES


@<TRIPOS>ATOM
   1 O1             2.3378     1.4832    -0.5731 O.2     
   2 O2            -1.0542     4.2585     1.4120 O.2     
   3 O3            -4.1380     7.5900    -0.6193 O.2     
   4 O4            -5.9411     3.9593     1.3286 O.2     
   5 N5             0.1320     1.2565    -0.5028 N.am    
   6 N6             0.0492     4.0769    -0.5042 N.am    
   7 N7            -3.7785     4.6072     1.2394 N.am    
   8 N8            -5.3493     5.8540     0.2632 N.am    
   9 C9             0.2187    -0.1592    -0.8696 C.3     
  10 C10           -0.9930    -0.9241    -0.3089 C.3     
  11 C11            0.1647    -0.3118    -2.4038 C.3     
  12 C12           -1.7410    -1.5149    -1.5219 C.3     
  13 C13           -0.6606    -1.6031    -2.6282 C.3     
  14 C14            1.1723     3.4030     0.1520 C.3     
  15 C15            1.2571     1.9790    -0.3339 C.2     
  16 C16            2.4732     4.1349    -0.1842 C.3     
  17 C17            0.9584     3.4130     1.6670 C.3     
  18 C18           -0.9974     4.5094     0.2267 C.2     
  19 C19            0.0630     4.2716    -1.8897 C.ar    
  20 C20            2.7494     4.0208    -1.6847 C.3     
  21 C21           -2.0969     5.3046    -0.4288 C.3     
  22 C22           -3.0969     5.7643     0.6340 C.3     
  23 C23            0.1015     3.1787    -2.7457 C.ar    
  24 C24            0.0325     5.5581    -2.4120 C.ar    
  25 C25           -4.2264     6.5507    -0.0013 C.2     
  26 C26            0.1151     3.3743    -4.1128 C.ar    
  27 C27            0.0463     5.7469    -3.7801 C.ar    
  28 C28            0.0904     4.6567    -4.6296 C.ar    
  29 C29           -5.0889     4.7481     0.9699 C.2     
  30 C30            0.1053     4.8664    -6.1218 C.3     
  31 H31            1.1429    -0.5888    -0.4832 H       
  32 H32           -0.6568    -1.7255     0.3490 H       
  33 H33           -1.6455    -0.2421     0.2362 H       
  34 H34           -0.3365     0.5446    -2.8549 H       
  35 H35            1.1692    -0.4253    -2.8114 H       
  36 H36           -2.1272    -2.5065    -1.2859 H       
  37 H37           -2.5500    -0.8529    -1.8306 H       
  38 H38           -1.1193    -1.6014    -3.6170 H       
  39 H39           -0.0387    -2.4877    -2.4912 H       
  40 H40           -0.7353     1.6749    -0.3853 H       
  41 H41            2.3798     5.1859     0.0892 H       
  42 H42            3.2965     3.6866     0.3719 H       
  43 H43            0.0317     2.8916     1.9065 H       
  44 H44            1.7941     2.9116     2.1552 H       
  45 H45            0.8971     4.4430     2.0185 H       
  46 H46            2.6309     2.9836    -1.9981 H       
  47 H47            2.0463     4.6484    -2.2323 H       
  48 H48            3.7677     4.3492    -1.8927 H       
  49 H49           -1.6690     6.1752    -0.9258 H       
  50 H50           -2.6077     4.6816    -1.1630 H       
  51 H51           -2.5961     6.3578     1.3989 H       
  52 H52            0.1212     2.1769    -2.3427 H       
  53 H53           -0.0024     6.4099    -1.7490 H       
  54 H54           -3.3629     3.8827     1.7326 H       
  55 H55            0.1454     2.5247    -4.7790 H       
  56 H56            0.0222     6.7471    -4.1868 H       
  57 H57           -6.2366     6.1213    -0.0232 H       
  58 H58           -0.9183     4.8915    -6.4955 H       
  59 H59            0.5991     5.8106    -6.3511 H       
  60 H60            0.6460     4.0485    -6.5983 H       
@<TRIPOS>BOND
   1    1   15 2
   2    2   18 2
   3    3   25 2
   4    4   29 2
   5    5    9 1
   6    5   15 am
   7    5   40 1
   8    6   14 1
   9    6   18 am
  10    6   19 1
  11    7   22 1
  12    7   29 am
  13    7   54 1
  14    8   25 am
  15    8   29 am
  16    8   57 1
  17    9   10 1
  18    9   11 1
  19    9   31 1
  20   10   12 1
  21   10   32 1
  22   10   33 1
  23   11   13 1
  24   11   34 1
  25   11   35 1
  26   12   13 1
  27   12   36 1
  28   12   37 1
  29   13   38 1
  30   13   39 1
  31   14   15 1
  32   14   16 1
  33   14   17 1
  34   16   20 1
  35   16   41 1
  36   16   42 1
  37   17   43 1
  38   17   44 1
  39   17   45 1
  40   18   21 1
  41   19   23 ar
  42   19   24 ar
  43   20   46 1
  44   20   47 1
  45   20   48 1
  46   21   22 1
  47   21   49 1
  48   21   50 1
  49   22   25 1
  50   22   51 1
  51   23   26 ar
  52   23   52 1
  53   24   27 ar
  54   24   53 1
  55   26   28 ar
  56   26   55 1
  57   27   28 ar
  58   27   56 1
  59   28   30 1
  60   30   58 1
  61   30   59 1
  62   30   60 1

#	End of record

#	Name: 5199583
#	Creating user name:	landrgr1
#	Creation time:	28. 01. 2015 13:52

#	Modifying user name:	landrgr1
#	Modification time:	28. 01. 2015 13:52

#	Program:	corina 3.48 0006  22.01.2010

@<TRIPOS>MOLECULE
5199583
  35   36    0    0    0
SMALL
NO_CHARGES


@<TRIPOS>ATOM
   1 F1             8.3481     8.4198    -1.1784 F       
   2 F2             8.3705     8.4081     1.1060 F       
   3 F3             7.9977    10.3590    -0.0227 F       
   4 O4            -0.0162     1.3439     0.0094 O.3     
   5 O5             3.1518     5.0157    -0.0024 O.3     
   6 O6             3.8475     7.5279     0.0036 O.2     
   7 N7             6.0485     7.2501    -0.0194 N.am    
   8 N8             2.8221     3.6387    -0.0062 N.2     
   9 C9             1.3492    -0.4110    -0.0130 C.ar    
  10 C10            0.0021    -0.0041     0.0020 C.ar    
  11 C11            1.2373     1.8416     0.0001 C.2     
  12 C12            2.1357     0.8230    -0.0139 C.2     
  13 C13            1.6701    -1.7696    -0.0241 C.ar    
  14 C14            1.5793     3.2697     0.0041 C.2     
  15 C15           -0.9968    -0.9693     0.0060 C.ar    
  16 C16            0.6704    -2.7020    -0.0192 C.ar    
  17 C17           -0.6594    -2.3064    -0.0048 C.ar    
  18 C18            6.2761     8.6973    -0.0143 C.3     
  19 C19            0.4856     4.3064     0.0202 C.3     
  20 C20            4.5567     5.2770    -0.0149 C.3     
  21 C21            4.7908     6.7657    -0.0096 C.2     
  22 C22            7.7803     8.9770    -0.0276 C.3     
  23 H23            3.2124     0.9069    -0.0234 H       
  24 H24            2.7037    -2.0826    -0.0357 H       
  25 H25           -2.0353    -0.6733     0.0178 H       
  26 H26            0.9173    -3.7534    -0.0281 H       
  27 H27           -1.4389    -3.0539    -0.0017 H       
  28 H28            5.8163     9.1406    -0.8975 H       
  29 H29            5.8338     9.1315     0.8823 H       
  30 H30            0.2118     4.5616    -1.0036 H       
  31 H31           -0.3852     3.9077     0.5405 H       
  32 H32            0.8392     5.1996     0.5351 H       
  33 H33            6.8030     6.6405    -0.0300 H       
  34 H34            5.0166     4.8337     0.8684 H       
  35 H35            4.9991     4.8428    -0.9115 H       
@<TRIPOS>BOND
   1    1   22 1
   2    2   22 1
   3    3   22 1
   4    4   10 1
   5    4   11 1
   6    5    8 1
   7    5   20 1
   8    6   21 2
   9    7   18 1
  10    7   21 am
  11    7   33 1
  12    8   14 2
  13    9   10 ar
  14    9   12 1
  15    9   13 ar
  16   10   15 ar
  17   11   12 2
  18   11   14 1
  19   12   23 1
  20   13   16 ar
  21   13   24 1
  22   14   19 1
  23   15   17 ar
  24   15   25 1
  25   16   17 ar
  26   16   26 1
  27   17   27 1
  28   18   22 1
  29   18   28 1
  30   18   29 1
  31   19   30 1
  32   19   31 1
  33   19   32 1
  34   20   21 1
  35   20   34 1
  36   20   35 1

#	End of record

#	Name: 5198035
#	Creating user name:	landrgr1
#	Creation time:	28. 01. 2015 13:52

#	Modifying user name:	landrgr1
#	Modification time:	28. 01. 2015 13:52

#	Program:	corina 3.48 0006  22.01.2010

@<TRIPOS>MOLECULE
5198035
  56   58    0    0    0
SMALL
NO_CHARGES


@<TRIPOS>ATOM
   1 S1             0.3581     1.7432     0.5788 S.o2    
   2 O2            -4.1407     0.5494     5.0128 O.3     
   3 O3             0.5376     0.3336     0.5641 O.2     
   4 O4             1.4332     2.6621     0.7163 O.2     
   5 O5            -5.7950     1.0953     6.9657 O.2     
   6 O6            -3.2108    -0.8457     3.5584 O.2     
   7 O7            -6.0557    -0.0158    -2.7685 O.2     
   8 O8            -5.1379    -1.8470    -2.2633 O.2     
   9 N9            -6.6693    -0.9250     7.2413 N.am    
  10 N10           -0.4110     2.1314    -0.8354 N.am    
  11 N11           -5.0917    -0.6331    -2.3523 N.pl3   
  12 N12           -8.1383    -4.8202     4.8424 N.1     
  13 C13           -0.7627     2.0883     1.8938 C.ar    
  14 C14           -6.7977    -2.3012     6.7555 C.3     
  15 C15           -7.4161    -0.5005     8.3458 C.ar    
  16 C16           -1.5507     1.0798     2.4091 C.ar    
  17 C17           -2.4382     1.3551     3.4510 C.ar    
  18 C18           -5.8320    -0.0679     6.6242 C.2     
  19 C19           -0.8464     3.3687     2.4111 C.ar    
  20 C20           -4.9418    -0.5548     5.5100 C.3     
  21 C21           -1.5693     1.4472    -1.2111 C.ar    
  22 C22           -7.9099    -2.3703     5.7071 C.3     
  23 C23           -2.5217     2.6510     3.9646 C.ar    
  24 C24           -1.7237     3.6484     3.4443 C.ar    
  25 C25           -8.4182     0.4475     8.1855 C.ar    
  26 C26           -7.1605    -1.0305     9.6037 C.ar    
  27 C27           -3.2854     0.2805     4.0074 C.2     
  28 C28           -2.6697     2.1497    -1.6859 C.ar    
  29 C29           -1.6215     0.0623    -1.1160 C.ar    
  30 C30           -9.1537     0.8641     9.2777 C.ar    
  31 C31           -7.8997    -0.6097    10.6919 C.ar    
  32 C32           -3.8134     1.4700    -2.0564 C.ar    
  33 C33           -2.7684    -0.6110    -1.4883 C.ar    
  34 C34           -3.8641     0.0918    -1.9547 C.ar    
  35 C35           -8.8930     0.3386    10.5299 C.ar    
  36 C36           -8.0388    -3.7531     5.2191 C.1     
  37 H37           -5.8558    -2.6176     6.3074 H       
  38 H38           -7.0427    -2.9594     7.5891 H       
  39 H39           -1.4814     0.0798     2.0071 H       
  40 H40           -0.0571     2.8340    -1.4029 H       
  41 H41           -0.2241     4.1534     2.0071 H       
  42 H42           -5.5558    -0.9513     4.7013 H       
  43 H43           -4.2853    -1.3395     5.8860 H       
  44 H44           -8.8518    -2.0539     6.1553 H       
  45 H45           -7.6649    -1.7122     4.8735 H       
  46 H46           -3.2062     2.8707     4.7706 H       
  47 H47           -1.7835     4.6499     3.8440 H       
  48 H48           -8.6218     0.8588     7.2079 H       
  49 H49           -6.3849    -1.7711     9.7309 H       
  50 H50           -2.6309     3.2261    -1.7649 H       
  51 H51           -0.7661    -0.4872    -0.7518 H       
  52 H52           -9.9332     1.6013     9.1536 H       
  53 H53           -7.7017    -1.0217    11.6704 H       
  54 H54           -4.6692     2.0155    -2.4257 H       
  55 H55           -2.8095    -1.6877    -1.4150 H       
  56 H56           -9.4692     0.6665    11.3825 H       
@<TRIPOS>BOND
   1    1    3 2
   2    1    4 2
   3    1   10 am
   4    1   13 1
   5    2   20 1
   6    2   27 1
   7    5   18 2
   8    6   27 2
   9    7   11 2
  10    8   11 2
  11    9   14 1
  12    9   15 1
  13    9   18 am
  14   10   21 1
  15   10   40 1
  16   11   34 1
  17   12   36 3
  18   13   16 ar
  19   13   19 ar
  20   14   22 1
  21   14   37 1
  22   14   38 1
  23   15   25 ar
  24   15   26 ar
  25   16   17 ar
  26   16   39 1
  27   17   23 ar
  28   17   27 1
  29   18   20 1
  30   19   24 ar
  31   19   41 1
  32   20   42 1
  33   20   43 1
  34   21   28 ar
  35   21   29 ar
  36   22   36 1
  37   22   44 1
  38   22   45 1
  39   23   24 ar
  40   23   46 1
  41   24   47 1
  42   25   30 ar
  43   25   48 1
  44   26   31 ar
  45   26   49 1
  46   28   32 ar
  47   28   50 1
  48   29   33 ar
  49   29   51 1
  50   30   35 ar
  51   30   52 1
  52   31   35 ar
  53   31   53 1
  54   32   34 ar
  55   32   54 1
  56   33   34 ar
  57   33   55 1
  58   35   56 1

#	End of record

#	Name: 5195673
#	Creating user name:	landrgr1
#	Creation time:	28. 01. 2015 13:52

#	Modifying user name:	landrgr1
#	Modification time:	28. 01. 2015 13:52

#	Program:	corina 3.48 0006  22.01.2010

@<TRIPOS>MOLECULE
5195673
  57   59    0    0    0
SMALL
NO_CHARGES


@<TRIPOS>ATOM
   1 O1             1.4237     1.0881     1.1780 O.3     
   2 O2             2.8103     2.0004    -3.6665 O.3     
   3 O3             4.2470    -3.3017    -3.4476 O.3     
   4 O4             4.3373    -0.2254    -7.0616 O.2     
   5 O5             7.7558    -3.6735   -11.0764 O.3     
   6 N6             2.0183     0.4663    -1.4955 N.3     
   7 N7             5.0312    -1.7705    -5.6243 N.am    
   8 C8             2.7922     1.4856    -0.7721 C.3     
   9 C9             1.5336    -0.5712    -0.5736 C.3     
  10 C10            2.7749    -0.0967    -2.5324 C.ar    
  11 C11            1.9109     2.1151     0.3100 C.3     
  12 C12            0.6649     0.0788     0.5065 C.3     
  13 C13            3.1647     0.6875    -3.6149 C.ar    
  14 C14            3.1403    -1.4342    -2.4773 C.ar    
  15 C15            3.8884    -1.9905    -3.5018 C.ar    
  16 C16            4.2737    -1.2074    -4.5869 C.ar    
  17 C17            3.9127     0.1314    -4.6392 C.ar    
  18 C18            3.2444     2.7452    -4.8062 C.3     
  19 C19            3.8179    -4.0450    -2.3051 C.3     
  20 C20            4.9827    -1.2364    -6.8608 C.2     
  21 C21            2.7544     4.1898    -4.6882 C.3     
  22 C22            5.7128    -1.8784    -7.9711 C.ar    
  23 C23            4.3123    -5.4884    -2.4206 C.3     
  24 C24            5.6638    -1.3262    -9.2538 C.ar    
  25 C25            6.4597    -3.0369    -7.7413 C.ar    
  26 C26            6.3469    -1.9280   -10.2870 C.ar    
  27 C27            7.1399    -3.6326    -8.7799 C.ar    
  28 C28            7.0844    -3.0832   -10.0554 C.ar    
  29 C29            8.4937    -4.8579   -10.7687 C.3     
  30 H30            3.6622     1.0209    -0.3082 H       
  31 H31            3.1193     2.2570    -1.4693 H       
  32 H32            0.9420    -1.3013    -1.1259 H       
  33 H33            2.3834    -1.0689    -0.1065 H       
  34 H34            1.0692     2.6259    -0.1577 H       
  35 H35            2.4973     2.8308     0.8862 H       
  36 H36            0.3502    -0.6781     1.2249 H       
  37 H37           -0.2130     0.5305     0.0445 H       
  38 H38            2.8417    -2.0413    -1.6355 H       
  39 H39            4.2147     0.7397    -5.4790 H       
  40 H40            5.5900    -2.5444    -5.4519 H       
  41 H41            4.3332     2.7337    -4.8546 H       
  42 H42            2.8356     2.2957    -5.7112 H       
  43 H43            4.2271    -3.5919    -1.4022 H       
  44 H44            2.7291    -4.0369    -2.2544 H       
  45 H45            3.0855     4.7579    -5.5575 H       
  46 H46            1.6656     4.2014    -4.6398 H       
  47 H47            3.1631     4.6393    -3.7832 H       
  48 H48            3.9031    -5.9415    -3.3235 H       
  49 H49            5.4011    -5.4965    -2.4713 H       
  50 H50            3.9849    -6.0554    -1.5491 H       
  51 H51            5.0908    -0.4288    -9.4347 H       
  52 H52            6.5037    -3.4643    -6.7504 H       
  53 H53            6.3092    -1.5020   -11.2788 H       
  54 H54            7.7177    -4.5278    -8.6030 H       
  55 H55            9.2477    -4.6307   -10.0150 H       
  56 H56            7.8148    -5.6197   -10.3853 H       
  57 H57            8.9816    -5.2268   -11.6709 H       
@<TRIPOS>BOND
   1    1   11 1
   2    1   12 1
   3    2   13 1
   4    2   18 1
   5    3   15 1
   6    3   19 1
   7    4   20 2
   8    5   28 1
   9    5   29 1
  10    6    8 1
  11    6    9 1
  12    6   10 1
  13    7   16 1
  14    7   20 am
  15    7   40 1
  16    8   11 1
  17    8   30 1
  18    8   31 1
  19    9   12 1
  20    9   32 1
  21    9   33 1
  22   10   13 ar
  23   10   14 ar
  24   11   34 1
  25   11   35 1
  26   12   36 1
  27   12   37 1
  28   13   17 ar
  29   14   15 ar
  30   14   38 1
  31   15   16 ar
  32   16   17 ar
  33   17   39 1
  34   18   21 1
  35   18   41 1
  36   18   42 1
  37   19   23 1
  38   19   43 1
  39   19   44 1
  40   20   22 1
  41   21   45 1
  42   21   46 1
  43   21   47 1
  44   22   24 ar
  45   22   25 ar
  46   23   48 1
  47   23   49 1
  48   23   50 1
  49   24   26 ar
  50   24   51 1
  51   25   27 ar
  52   25   52 1
  53   26   28 ar
  54   26   53 1
  55   27   28 ar
  56   27   54 1
  57   29   55 1
  58   29   56 1
  59   29   57 1

#	End of record

#	Name: 5194176
#	Creating user name:	landrgr1
#	Creation time:	28. 01. 2015 13:52

#	Modifying user name:	landrgr1
#	Modification time:	28. 01. 2015 13:52

#	Program:	corina 3.48 0006  22.01.2010

@<TRIPOS>MOLECULE
5194176
  45   47    0    0    0
SMALL
NO_CHARGES


@<TRIPOS>ATOM
   1 S1            -0.0219     1.7647     0.0117 S.3     
   2 O2            -0.2443    10.3609     0.0423 O.3     
   3 O3             2.5050    10.3002     0.0258 O.3     
   4 O4            -1.6770     8.0137     0.0437 O.3     
   5 O5             3.6649     5.4084    -0.0050 O.2     
   6 N6             2.2453     0.6667    -0.0158 N.pl3   
   7 N7             2.4191     3.0562    -0.0050 N.2     
   8 N8             1.7471     4.2854     0.0081 N.am    
   9 C9             1.3436    -0.3845    -0.0128 C.ar    
  10 C10            0.0021    -0.0041     0.0020 C.ar    
  11 C11            1.7402     1.9410    -0.0041 C.2     
  12 C12            1.6293    -1.7580    -0.0229 C.ar    
  13 C13            3.6901     0.4249    -0.0304 C.3     
  14 C14           -1.0146    -0.9430     0.0063 C.ar    
  15 C15            1.7399     6.7318     0.0209 C.ar    
  16 C16            0.6151    -2.6885    -0.0191 C.ar    
  17 C17           -0.7098    -2.2912    -0.0043 C.ar    
  18 C18            0.4077     9.1684     0.0353 C.ar    
  19 C19            1.7995     9.1374     0.0272 C.ar    
  20 C20           -0.3174     7.9800     0.0362 C.ar    
  21 C21            2.4651     7.9257     0.0200 C.ar    
  22 C22            0.3434     6.7656     0.0291 C.ar    
  23 C23            2.4480     5.4366     0.0072 C.2     
  24 C24           -0.5628    10.9336    -1.2276 C.3     
  25 C25            3.9300    10.1944     0.0174 C.3     
  26 C26           -2.3571     6.7569     0.0442 C.3     
  27 H27            2.6572    -2.0891    -0.0345 H       
  28 H28            4.0389     0.3703    -1.0616 H       
  29 H29            4.2001     1.2401     0.4829 H       
  30 H30            3.9063    -0.5154     0.4766 H       
  31 H31           -2.0459    -0.6224     0.0182 H       
  32 H32            0.8566    -3.7411    -0.0270 H       
  33 H33           -1.4994    -3.0282    -0.0007 H       
  34 H34            3.5449     7.9022     0.0141 H       
  35 H35           -0.2196     5.8440     0.0294 H       
  36 H36            0.7774     4.3080     0.0178 H       
  37 H37            0.3554    11.1051    -1.7894 H       
  38 H38           -1.2064    10.2512    -1.7828 H       
  39 H39           -1.0804    11.8814    -1.0792 H       
  40 H40            4.3685    11.1923     0.0172 H       
  41 H41            4.2594     9.6529     0.9042 H       
  42 H42            4.2492     9.6571    -0.8757 H       
  43 H43           -2.0732     6.1905     0.9312 H       
  44 H44           -3.4338     6.9264     0.0504 H       
  45 H45           -2.0829     6.1950    -0.8487 H       
@<TRIPOS>BOND
   1    1   10 1
   2    1   11 1
   3    2   18 1
   4    2   24 1
   5    3   19 1
   6    3   25 1
   7    4   20 1
   8    4   26 1
   9    5   23 2
  10    6    9 1
  11    6   11 1
  12    6   13 1
  13    7    8 1
  14    7   11 2
  15    8   23 am
  16    8   36 1
  17    9   10 ar
  18    9   12 ar
  19   10   14 ar
  20   12   16 ar
  21   12   27 1
  22   13   28 1
  23   13   29 1
  24   13   30 1
  25   14   17 ar
  26   14   31 1
  27   15   21 ar
  28   15   22 ar
  29   15   23 1
  30   16   17 ar
  31   16   32 1
  32   17   33 1
  33   18   19 ar
  34   18   20 ar
  35   19   21 ar
  36   20   22 ar
  37   21   34 1
  38   22   35 1
  39   24   37 1
  40   24   38 1
  41   24   39 1
  42   25   40 1
  43   25   41 1
  44   25   42 1
  45   26   43 1
  46   26   44 1
  47   26   45 1

#	End of record

#	Name: 5190971
#	Creating user name:	landrgr1
#	Creation time:	28. 01. 2015 13:52

#	Modifying user name:	landrgr1
#	Modification time:	28. 01. 2015 13:52

#	Program:	corina 3.48 0006  22.01.2010

@<TRIPOS>MOLECULE
5190971
  54   56    0    0    0
SMALL
NO_CHARGES


@<TRIPOS>ATOM
   1 O1             1.4613     3.1180     0.4955 O.2     
   2 O2             1.1797    -2.2800     1.0690 O.2     
   3 N3            -0.0426     1.4283     0.3269 N.am    
   4 N4             3.1283    -2.1278     0.0192 N.am    
   5 N5             5.0564    -6.6927     2.5620 N.pl3   
   6 C6             1.4176    -0.3691    -0.2956 C.3     
   7 C7            -0.0124    -0.0318     0.1815 C.3     
   8 C8             2.2233     0.8334     0.2485 C.3     
   9 C9             1.1995     1.9402     0.3728 C.2     
  10 C10           -1.2688     2.2261     0.4055 C.3     
  11 C11            1.8988    -1.6607     0.3136 C.2     
  12 C12           -1.6902     2.3588     1.8463 C.ar    
  13 C13            3.6134    -3.2763     0.6592 C.ar    
  14 C14           -1.2284     3.4168     2.6068 C.ar    
  15 C15           -2.5430     1.4258     2.4058 C.ar    
  16 C16            4.5722    -5.5463     1.9231 C.ar    
  17 C17            2.7446    -4.3100     0.9829 C.ar    
  18 C18            4.9638    -3.3829     0.9644 C.ar    
  19 C19            3.2224    -5.4417     1.6130 C.ar    
  20 C20            5.4421    -4.5147     1.5941 C.ar    
  21 C21            6.4802    -6.8029     2.8890 C.3     
  22 C22            4.1398    -7.7831     2.9040 C.3     
  23 C23           -1.6149     3.5385     3.9284 C.ar    
  24 C24           -2.9295     1.5475     3.7274 C.ar    
  25 C25           -2.4636     2.6026     4.4894 C.ar    
  26 C26            6.7283    -6.2307     4.2861 C.3     
  27 C27            4.0682    -8.7733     1.7398 C.3     
  28 H28            1.4661    -0.4108    -1.3837 H       
  29 H29           -0.2130    -0.5105     1.1400 H       
  30 H30           -0.7432    -0.3521    -0.5611 H       
  31 H31            2.6499     0.5970     1.2233 H       
  32 H32            3.0075     1.1162    -0.4537 H       
  33 H33           -1.0856     3.2161    -0.0122 H       
  34 H34           -2.0595     1.7336    -0.1604 H       
  35 H35            3.6774    -1.6690    -0.6357 H       
  36 H36           -0.5654     4.1480     2.1685 H       
  37 H37           -2.9076     0.6019     1.8102 H       
  38 H38            1.6950    -4.2285     0.7420 H       
  39 H39            5.6401    -2.5806     0.7089 H       
  40 H40            2.5459    -6.2438     1.8687 H       
  41 H41            6.4916    -4.5956     1.8355 H       
  42 H42            6.7778    -7.8512     2.8677 H       
  43 H43            7.0651    -6.2442     2.1584 H       
  44 H44            4.5015    -8.2958     3.7953 H       
  45 H45            3.1470    -7.3763     3.0965 H       
  46 H46           -1.2536     4.3647     4.5228 H       
  47 H47           -3.5961     0.8188     4.1644 H       
  48 H48           -2.7653     2.6975     5.5220 H       
  49 H49            6.4306    -5.1823     4.3075 H       
  50 H50            6.1434    -6.7894     5.0167 H       
  51 H51            7.7876    -6.3126     4.5295 H       
  52 H52            3.7065    -8.2606     0.8485 H       
  53 H53            5.0609    -9.1801     1.5472 H       
  54 H54            3.3862    -9.5846     1.9942 H       
@<TRIPOS>BOND
   1    1    9 2
   2    2   11 2
   3    3    7 1
   4    3    9 am
   5    3   10 1
   6    4   11 am
   7    4   13 1
   8    4   35 1
   9    5   16 1
  10    5   21 1
  11    5   22 1
  12    6    7 1
  13    6    8 1
  14    6   11 1
  15    6   28 1
  16    7   29 1
  17    7   30 1
  18    8    9 1
  19    8   31 1
  20    8   32 1
  21   10   12 1
  22   10   33 1
  23   10   34 1
  24   12   14 ar
  25   12   15 ar
  26   13   17 ar
  27   13   18 ar
  28   14   23 ar
  29   14   36 1
  30   15   24 ar
  31   15   37 1
  32   16   19 ar
  33   16   20 ar
  34   17   19 ar
  35   17   38 1
  36   18   20 ar
  37   18   39 1
  38   19   40 1
  39   20   41 1
  40   21   26 1
  41   21   42 1
  42   21   43 1
  43   22   27 1
  44   22   44 1
  45   22   45 1
  46   23   25 ar
  47   23   46 1
  48   24   25 ar
  49   24   47 1
  50   25   48 1
  51   26   49 1
  52   26   50 1
  53   26   51 1
  54   27   52 1
  55   27   53 1
  56   27   54 1

#	End of record

#	Name: 5188385
#	Creating user name:	landrgr1
#	Creation time:	28. 01. 2015 13:52

#	Modifying user name:	landrgr1
#	Modification time:	28. 01. 2015 13:52

#	Program:	corina 3.48 0006  22.01.2010

@<TRIPOS>MOLECULE
5188385
  38   40    0    0    0
SMALL
NO_CHARGES


@<TRIPOS>ATOM
   1 F1             1.2597     2.0227    -2.3647 F       
   2 F2             2.5076     0.5255    -1.1728 F       
   3 F3             3.1449     2.7169    -1.2769 F       
   4 O4             1.1395    -0.5367     0.2735 O.2     
   5 O5             2.5093     0.8421     1.6427 O.2     
   6 O6             1.3843     5.1965     1.6081 O.2     
   7 N7            -0.0073     1.3468     0.0305 N.am    
   8 N8             0.9008     3.5840     0.1012 N.am    
   9 N9             2.1010     3.0827     1.9131 N.am    
  10 C10           -1.2056    -0.7977     0.3199 C.3     
  11 C11           -1.0624    -2.3079     0.5188 C.3     
  12 C12           -1.5241    -1.4239     1.6791 C.3     
  13 C13            0.0601     0.0123     0.2065 C.2     
  14 C14            1.2193     2.1478     0.0244 C.3     
  15 C15            2.0279     1.8945     1.2813 C.2     
  16 C16            2.0507     1.8468    -1.2242 C.3     
  17 C17            1.4577     4.0414     1.2372 C.2     
  18 C18            2.7683     3.2885     3.1289 C.ar    
  19 C19            3.5120     2.2628     3.6963 C.ar    
  20 C20            2.6913     4.5201     3.7647 C.ar    
  21 C21            4.1683     2.4685     4.8941 C.ar    
  22 C22            3.3498     4.7199     4.9623 C.ar    
  23 C23            4.0851     3.6946     5.5280 C.ar    
  24 C24            4.8020     3.9156     6.8350 C.3     
  25 H25           -2.0442    -0.4465    -0.2813 H       
  26 H26           -1.8068    -2.9503     0.0483 H       
  27 H27           -0.0527    -2.7156     0.5675 H       
  28 H28           -0.8181    -1.2501     2.4912 H       
  29 H29           -2.5722    -1.4848     1.9720 H       
  30 H30           -0.8677     1.7765    -0.0962 H       
  31 H31            0.3924     4.1002    -0.5437 H       
  32 H32            3.5771     1.3048     3.2019 H       
  33 H33            2.1174     5.3214     3.3232 H       
  34 H34            4.7468     1.6708     5.3363 H       
  35 H35            3.2902     5.6779     5.4574 H       
  36 H36            5.8071     4.2894     6.6395 H       
  37 H37            4.2531     4.6442     7.4318 H       
  38 H38            4.8643     2.9732     7.3792 H       
@<TRIPOS>BOND
   1    1   16 1
   2    2   16 1
   3    3   16 1
   4    4   13 2
   5    5   15 2
   6    6   17 2
   7    7   13 am
   8    7   14 1
   9    7   30 1
  10    8   14 1
  11    8   17 am
  12    8   31 1
  13    9   15 am
  14    9   17 am
  15    9   18 1
  16   10   11 1
  17   10   12 1
  18   10   13 1
  19   10   25 1
  20   11   12 1
  21   11   26 1
  22   11   27 1
  23   12   28 1
  24   12   29 1
  25   14   15 1
  26   14   16 1
  27   18   19 ar
  28   18   20 ar
  29   19   21 ar
  30   19   32 1
  31   20   22 ar
  32   20   33 1
  33   21   23 ar
  34   21   34 1
  35   22   23 ar
  36   22   35 1
  37   23   24 1
  38   24   36 1
  39   24   37 1
  40   24   38 1

#	End of record

#	Name: 5187164
#	Creating user name:	landrgr1
#	Creation time:	28. 01. 2015 13:52

#	Modifying user name:	landrgr1
#	Modification time:	28. 01. 2015 13:52

#	Program:	corina 3.48 0006  22.01.2010

@<TRIPOS>MOLECULE
5187164
  51   53    0    0    0
SMALL
NO_CHARGES


@<TRIPOS>ATOM
   1 O1            -4.2854    -3.9638    -0.9411 O.3     
   2 O2            -5.3299    -1.7469    -0.4269 O.2     
   3 N3            -8.8957     2.9911     0.8367 N.pl3   
   4 N4            -9.6919     3.2748    -0.1343 N.2     
   5 N5           -10.6763     3.9849     0.2907 N.2     
   6 N6            -4.2322    -0.0343     0.4654 N.am    
   7 C7            -8.7983     3.4870     3.3536 C.3     
   8 C8            -9.3942     3.5539     1.9711 C.2     
   9 C9            -8.8156     2.0388     3.8469 C.3     
  10 C10           -7.3554     3.9944     3.3121 C.3     
  11 C11           -9.6187     4.3599     4.3054 C.3     
  12 C12          -10.5341     4.1865     1.6054 C.2     
  13 C13           -7.7212     2.2291     0.7428 C.ar    
  14 C14           -7.7604     0.8615     0.9798 C.ar    
  15 C15           -6.5213     2.8417     0.4069 C.ar    
  16 C16           -5.4035     0.7254     0.5581 C.ar    
  17 C17           -6.6052     0.1118     0.8880 C.ar    
  18 C18           -5.3658     2.0925     0.3150 C.ar    
  19 C19           -4.2843    -1.2994     0.0034 C.2     
  20 C20           -3.0730    -2.1410     0.0197 C.ar    
  21 C21           -3.1226    -3.4573    -0.4599 C.ar    
  22 C22           -1.8685    -1.6291     0.5078 C.ar    
  23 C23           -1.9778    -4.2394    -0.4397 C.ar    
  24 C24           -0.7404    -2.4208     0.5208 C.ar    
  25 C25           -0.7949    -3.7228     0.0513 C.ar    
  26 C26           -4.2597    -5.3126    -1.4126 C.3     
  27 C27           -5.6515    -5.7047    -1.9127 C.3     
  28 H28           -8.2311     1.4170     3.1688 H       
  29 H29           -8.3845     1.9905     4.8469 H       
  30 H30           -9.8435     1.6774     3.8765 H       
  31 H31           -7.3509     5.0572     3.0699 H       
  32 H32           -6.8884     3.8415     4.2850 H       
  33 H33           -6.7992     3.4461     2.5518 H       
  34 H34          -10.6225     3.9465     4.4034 H       
  35 H35           -9.1379     4.3822     5.2834 H       
  36 H36           -9.6801     5.3728     3.9075 H       
  37 H37          -11.1979     4.7448     2.2488 H       
  38 H38           -8.6947     0.3846     1.2367 H       
  39 H39           -6.4921     3.9047     0.2180 H       
  40 H40           -6.6356    -0.9518     1.0731 H       
  41 H41           -4.4324     2.5692     0.0544 H       
  42 H42           -3.3827     0.3494     0.7337 H       
  43 H43           -1.8212    -0.6144     0.8745 H       
  44 H44           -2.0113    -5.2541    -0.8081 H       
  45 H45            0.1905    -2.0241     0.8983 H       
  46 H46            0.0940    -4.3361     0.0652 H       
  47 H47           -3.5427    -5.3984    -2.2291 H       
  48 H48           -3.9654    -5.9762    -0.5995 H       
  49 H49           -5.9457    -5.0411    -2.7258 H       
  50 H50           -5.6318    -6.7335    -2.2723 H       
  51 H51           -6.3684    -5.6189    -1.0961 H       
@<TRIPOS>BOND
   1    1   21 1
   2    1   26 1
   3    2   19 2
   4    3    4 1
   5    3    8 1
   6    3   13 1
   7    4    5 2
   8    5   12 1
   9    6   16 1
  10    6   19 am
  11    6   42 1
  12    7    8 1
  13    7    9 1
  14    7   10 1
  15    7   11 1
  16    8   12 2
  17    9   28 1
  18    9   29 1
  19    9   30 1
  20   10   31 1
  21   10   32 1
  22   10   33 1
  23   11   34 1
  24   11   35 1
  25   11   36 1
  26   12   37 1
  27   13   14 ar
  28   13   15 ar
  29   14   17 ar
  30   14   38 1
  31   15   18 ar
  32   15   39 1
  33   16   17 ar
  34   16   18 ar
  35   17   40 1
  36   18   41 1
  37   19   20 1
  38   20   21 ar
  39   20   22 ar
  40   21   23 ar
  41   22   24 ar
  42   22   43 1
  43   23   25 ar
  44   23   44 1
  45   24   25 ar
  46   24   45 1
  47   25   46 1
  48   26   27 1
  49   26   47 1
  50   26   48 1
  51   27   49 1
  52   27   50 1
  53   27   51 1

#	End of record

#	Name: 5185061
#	Creating user name:	landrgr1
#	Creation time:	28. 01. 2015 13:52

#	Modifying user name:	landrgr1
#	Modification time:	28. 01. 2015 13:52

#	Program:	corina 3.48 0006  22.01.2010

@<TRIPOS>MOLECULE
5185061
  62   64    0    0    0
SMALL
NO_CHARGES


@<TRIPOS>ATOM
   1 S1            -0.1052     1.8811    -0.0878 S.3     
   2 F2             4.2706     9.4973     0.0514 F       
   3 O3            -3.8842    -6.0117    -3.6997 O.3     
   4 O4            -3.1498    -5.2716    -1.3106 O.2     
   5 O5             1.0502     4.4193     0.0978 O.2     
   6 N6            -1.2642    -0.6590    -0.2734 N.pl3   
   7 N7            -1.9870    -3.4692    -1.8776 N.am    
   8 N8             0.4906    -1.8914    -0.4487 N.2     
   9 N9             0.8880    -0.6732    -0.3483 N.2     
  10 N10            3.2396     4.0757    -0.0070 N.am    
  11 C11           -5.5179    -7.6865    -8.8232 C.3     
  12 C12           -5.0811    -7.2382    -7.4523 C.ar    
  13 C13           -0.8105    -1.9426    -0.4030 C.2     
  14 C14           -2.6584    -0.2186    -0.1812 C.3     
  15 C15           -1.6585    -3.1861    -0.4783 C.3     
  16 C16           -6.3488    -6.5825    -9.4801 C.3     
  17 C17           -4.2852    -7.9765    -9.6818 C.3     
  18 C18           -5.4604    -7.9611    -6.3364 C.ar    
  19 C19           -4.2970    -6.1079    -7.3131 C.ar    
  20 C20           -0.1477     0.1264    -0.2418 C.2     
  21 C21           -4.2785    -6.4157    -4.9359 C.ar    
  22 C22           -5.0609    -7.5525    -5.0787 C.ar    
  23 C23           -3.8949    -5.6951    -6.0576 C.ar    
  24 C24           -3.0885    -0.1907     1.2868 C.3     
  25 C25           -3.0801    -4.8325    -3.6284 C.3     
  26 C26           -2.7422    -4.5413    -2.1889 C.2     
  27 C27            1.6834     2.1566    -0.1241 C.3     
  28 C28            1.9671     3.6317    -0.0031 C.2     
  29 C29            3.5011     5.4513     0.0078 C.ar    
  30 C30            2.6699     6.3094     0.7153 C.ar    
  31 C31            4.5954     5.9583    -0.6802 C.ar    
  32 C32            2.9299     7.6658     0.7290 C.ar    
  33 C33            4.8520     7.3153    -0.6640 C.ar    
  34 C34            4.0184     8.1701     0.0375 C.ar    
  35 H35           -6.1201    -8.5908    -8.7350 H       
  36 H36           -2.7527     0.7806    -0.6065 H       
  37 H37           -3.2951    -0.9099    -0.7333 H       
  38 H38           -2.5778    -3.0338     0.0871 H       
  39 H39           -1.1080    -4.0273    -0.0569 H       
  40 H40           -5.7466    -5.6782    -9.5683 H       
  41 H41           -6.6648    -6.9067   -10.4717 H       
  42 H42           -7.2270    -6.3759    -8.8684 H       
  43 H43           -3.6933    -8.7630    -9.2138 H       
  44 H44           -4.6011    -8.3007   -10.6733 H       
  45 H45           -3.6830    -7.0722    -9.7700 H       
  46 H46           -6.0697    -8.8457    -6.4480 H       
  47 H47           -3.9984    -5.5475    -8.1867 H       
  48 H48           -5.3577    -8.1172    -4.2073 H       
  49 H49           -3.2828    -4.8120    -5.9494 H       
  50 H50           -1.6610    -2.8851    -2.5801 H       
  51 H51           -2.4518     0.5007     1.8389 H       
  52 H52           -4.1258     0.1370     1.3554 H       
  53 H53           -2.9942    -1.1899     1.7120 H       
  54 H54           -2.1608    -4.9849    -4.1938 H       
  55 H55           -3.6306    -3.9913    -4.0497 H       
  56 H56            2.1494     1.6275     0.7071 H       
  57 H57            2.0892     1.7845    -1.0649 H       
  58 H58            3.9742     3.4424    -0.0200 H       
  59 H59            1.8204     5.9166     1.2542 H       
  60 H60            5.2458     5.2919    -1.2275 H       
  61 H61            2.2835     8.3336     1.2792 H       
  62 H62            5.7032     7.7100    -1.1988 H       
@<TRIPOS>BOND
   1    1   20 1
   2    1   27 1
   3    2   34 1
   4    3   21 1
   5    3   25 1
   6    4   26 2
   7    5   28 2
   8    6   13 1
   9    6   14 1
  10    6   20 1
  11    7   15 1
  12    7   26 am
  13    7   50 1
  14    8    9 1
  15    8   13 2
  16    9   20 2
  17   10   28 am
  18   10   29 1
  19   10   58 1
  20   11   12 1
  21   11   16 1
  22   11   17 1
  23   11   35 1
  24   12   18 ar
  25   12   19 ar
  26   13   15 1
  27   14   24 1
  28   14   36 1
  29   14   37 1
  30   15   38 1
  31   15   39 1
  32   16   40 1
  33   16   41 1
  34   16   42 1
  35   17   43 1
  36   17   44 1
  37   17   45 1
  38   18   22 ar
  39   18   46 1
  40   19   23 ar
  41   19   47 1
  42   21   22 ar
  43   21   23 ar
  44   22   48 1
  45   23   49 1
  46   24   51 1
  47   24   52 1
  48   24   53 1
  49   25   26 1
  50   25   54 1
  51   25   55 1
  52   27   28 1
  53   27   56 1
  54   27   57 1
  55   29   30 ar
  56   29   31 ar
  57   30   32 ar
  58   30   59 1
  59   31   33 ar
  60   31   60 1
  61   32   34 ar
  62   32   61 1
  63   33   34 ar
  64   33   62 1

#	End of record

#	Name: 5184571
#	Creating user name:	landrgr1
#	Creation time:	28. 01. 2015 13:52

#	Modifying user name:	landrgr1
#	Modification time:	28. 01. 2015 13:52

#	Program:	corina 3.48 0006  22.01.2010

@<TRIPOS>MOLECULE
5184571
  48   50    0    0    0
SMALL
NO_CHARGES


@<TRIPOS>ATOM
   1 Cl1           -1.2507     7.1478     4.2690 Cl      
   2 F2             0.0196    -2.9584    -6.6926 F       
   3 F3             0.5520    -3.9474    -4.7032 F       
   4 F4             2.1646    -3.6341    -6.2908 F       
   5 O5            -1.6098     0.4255    -0.3240 O.3     
   6 O6             2.0775     3.5712    -2.0717 O.3     
   7 O7             0.4063     3.4099    -0.6203 O.2     
   8 N8             0.2767     0.4792    -2.4038 N.3     
   9 N9             2.6062     0.2288    -5.1873 N.ar    
  10 N10            1.7233     2.5114    -2.5564 N.2     
  11 N11            1.6317     5.2593    -0.5241 N.am    
  12 C12            0.4829    -0.3753    -1.2255 C.3     
  13 C13           -1.1571     0.6392    -2.6868 C.3     
  14 C14           -0.2237     0.2488    -0.0192 C.3     
  15 C15           -1.8473     1.2531    -1.4659 C.3     
  16 C16            0.9501    -0.0275    -3.5114 C.ar    
  17 C17            1.9651     0.7161    -4.1302 C.ar    
  18 C18            0.6275    -1.2821    -4.0236 C.ar    
  19 C19            1.3255    -1.7437    -5.1265 C.ar    
  20 C20            2.3236     2.0464    -3.6047 C.2     
  21 C21            2.3167    -0.9534    -5.6862 C.ar    
  22 C22            1.0098    -3.0951    -5.7138 C.3     
  23 C23            3.3888     2.8645    -4.2881 C.3     
  24 C24            1.3382     4.0565    -1.0565 C.2     
  25 C25            0.9483     5.7072     0.6126 C.ar    
  26 C26            0.5846     7.0426     0.7244 C.ar    
  27 C27            0.6278     4.8156     1.6278 C.ar    
  28 C28           -0.0900     7.4819     1.8466 C.ar    
  29 C29           -0.0469     5.2599     2.7480 C.ar    
  30 C30           -0.4032     6.5924     2.8594 C.ar    
  31 H31            0.0697    -1.3656    -1.4171 H       
  32 H32            1.5499    -0.4592    -1.0190 H       
  33 H33           -1.2873     1.2958    -3.5470 H       
  34 H34           -1.5965    -0.3349    -2.9018 H       
  35 H35            0.2257     1.2161     0.2056 H       
  36 H36           -0.1218    -0.4099     0.8432 H       
  37 H37           -2.9196     1.3208    -1.6497 H       
  38 H38           -1.4451     2.2496    -1.2832 H       
  39 H39           -0.1488    -1.8810    -3.5707 H       
  40 H40            2.8605    -1.3141    -6.5468 H       
  41 H41            4.3607     2.6320    -3.8527 H       
  42 H42            3.4015     2.6285    -5.3521 H       
  43 H43            3.1747     3.9248    -4.1536 H       
  44 H44            2.3165     5.8147    -0.9285 H       
  45 H45            0.8294     7.7373    -0.0655 H       
  46 H46            0.9056     3.7755     1.5413 H       
  47 H47           -0.3730     8.5204     1.9340 H       
  48 H48           -0.2964     4.5668     3.5378 H       
@<TRIPOS>BOND
   1    1   30 1
   2    2   22 1
   3    3   22 1
   4    4   22 1
   5    5   14 1
   6    5   15 1
   7    6   10 1
   8    6   24 1
   9    7   24 2
  10    8   12 1
  11    8   13 1
  12    8   16 1
  13    9   17 ar
  14    9   21 ar
  15   10   20 2
  16   11   24 am
  17   11   25 1
  18   11   44 1
  19   12   14 1
  20   12   31 1
  21   12   32 1
  22   13   15 1
  23   13   33 1
  24   13   34 1
  25   14   35 1
  26   14   36 1
  27   15   37 1
  28   15   38 1
  29   16   17 ar
  30   16   18 ar
  31   17   20 1
  32   18   19 ar
  33   18   39 1
  34   19   21 ar
  35   19   22 1
  36   20   23 1
  37   21   40 1
  38   23   41 1
  39   23   42 1
  40   23   43 1
  41   25   26 ar
  42   25   27 ar
  43   26   28 ar
  44   26   45 1
  45   27   29 ar
  46   27   46 1
  47   28   30 ar
  48   28   47 1
  49   29   30 ar
  50   29   48 1

#	End of record

#	Name: 5183036
#	Creating user name:	landrgr1
#	Creation time:	28. 01. 2015 13:52

#	Modifying user name:	landrgr1
#	Modification time:	28. 01. 2015 13:52

#	Program:	corina 3.48 0006  22.01.2010

@<TRIPOS>MOLECULE
5183036
  47   48    0    0    0
SMALL
NO_CHARGES


@<TRIPOS>ATOM
   1 N1            -0.0178     1.4608     0.0101 N.pl3   
   2 N2            -0.7768     3.5060     0.0283 N.2     
   3 N3             0.9833     5.9958     0.0363 N.pl3   
   4 C4             0.1692    -2.0499     1.4265 C.3     
   5 C5             0.1484    -0.5200     1.4349 C.3     
   6 C6             0.3155    -2.5658     2.8595 C.3     
   7 C7             0.0021    -0.0041     0.0020 C.3     
   8 C8             0.3363    -4.0956     2.8510 C.3     
   9 C9             1.0828     2.2942     0.0040 C.ar    
  10 C10            0.4826    -4.6116     4.2840 C.3     
  11 C11            0.5776     3.6031     0.0159 C.ar    
  12 C12            0.5033    -6.1414     4.2756 C.3     
  13 C13            2.4558     2.0797    -0.0106 C.ar    
  14 C14           -1.1251     2.2528     0.0190 C.2     
  15 C15            1.4693     4.6868     0.0186 C.ar    
  16 C16            3.3204     3.1532    -0.0135 C.ar    
  17 C17            2.8318     4.4513     0.0031 C.ar    
  18 C18            0.6497    -6.6574     5.7085 C.3     
  19 C19            4.8083     2.9146    -0.0294 C.3     
  20 C20            3.7922     5.6126     0.0054 C.3     
  21 H21           -0.7613    -2.4235     0.9991 H       
  22 H22            1.0102    -2.3985     0.8271 H       
  23 H23           -0.6926    -0.1713     2.0343 H       
  24 H24            1.0789    -0.1464     1.8624 H       
  25 H25            1.2460    -2.1922     3.2869 H       
  26 H26           -0.5255    -2.2171     3.4588 H       
  27 H27           -0.9284    -0.3777    -0.4254 H       
  28 H28            0.8431    -0.3527    -0.5974 H       
  29 H29           -0.5942    -4.4693     2.4236 H       
  30 H30            1.1772    -4.4443     2.2517 H       
  31 H31            1.4131    -4.2380     4.7114 H       
  32 H32           -0.3584    -4.2629     4.8833 H       
  33 H33           -0.4271    -6.5151     3.8481 H       
  34 H34            1.3443    -6.4901     3.6762 H       
  35 H35            2.8452     1.0724    -0.0194 H       
  36 H36           -2.1435     1.8933     0.0211 H       
  37 H37           -0.1913    -6.3087     6.3079 H       
  38 H38            0.6645    -7.7473     5.7025 H       
  39 H39            1.5802    -6.2837     6.1359 H       
  40 H40            5.1569     2.8625    -1.0609 H       
  41 H41            5.3130     3.7332     0.4837 H       
  42 H42            5.0311     1.9757     0.4773 H       
  43 H43            4.0337     5.8823     1.0335 H       
  44 H44            4.7046     5.3306    -0.5201 H       
  45 H45            3.3330     6.4648    -0.4955 H       
  46 H46            0.0270     6.1580     0.0469 H       
  47 H47            1.6020     6.7428     0.0381 H       
@<TRIPOS>BOND
   1    1    7 1
   2    1    9 1
   3    1   14 1
   4    2   11 1
   5    2   14 2
   6    3   15 1
   7    3   46 1
   8    3   47 1
   9    4    5 1
  10    4    6 1
  11    4   21 1
  12    4   22 1
  13    5    7 1
  14    5   23 1
  15    5   24 1
  16    6    8 1
  17    6   25 1
  18    6   26 1
  19    7   27 1
  20    7   28 1
  21    8   10 1
  22    8   29 1
  23    8   30 1
  24    9   11 ar
  25    9   13 ar
  26   10   12 1
  27   10   31 1
  28   10   32 1
  29   11   15 ar
  30   12   18 1
  31   12   33 1
  32   12   34 1
  33   13   16 ar
  34   13   35 1
  35   14   36 1
  36   15   17 ar
  37   16   17 ar
  38   16   19 1
  39   17   20 1
  40   18   37 1
  41   18   38 1
  42   18   39 1
  43   19   40 1
  44   19   41 1
  45   19   42 1
  46   20   43 1
  47   20   44 1
  48   20   45 1

#	End of record

#	Name: 5182956
#	Creating user name:	landrgr1
#	Creation time:	28. 01. 2015 13:52

#	Modifying user name:	landrgr1
#	Modification time:	28. 01. 2015 13:52

#	Program:	corina 3.48 0006  22.01.2010

@<TRIPOS>MOLECULE
5182956
  51   53    0    0    0
SMALL
NO_CHARGES


@<TRIPOS>ATOM
   1 O1            -2.3441     0.2498     0.0258 O.2     
   2 O2            -0.0176     1.4478     0.0100 O.3     
   3 O3             2.1921     1.4292    -0.0112 O.2     
   4 N4            -1.6400    -1.8540     0.0078 N.am    
   5 N5             4.6716     4.7048     0.6692 N.pl3   
   6 C6            -3.0463    -3.7608    -0.5987 C.3     
   7 C7            -2.1510    -4.6973     0.2151 C.3     
   8 C8            -3.0144    -2.3611     0.0182 C.3     
   9 C9            -2.6592    -4.7636     1.6567 C.3     
  10 C10           -3.5227    -2.4273     1.4598 C.3     
  11 C11           -2.6274    -3.3638     2.2736 C.3     
  12 C12           -2.5380    -3.6945    -2.0403 C.3     
  13 C13           -2.1828    -6.0971    -0.4017 C.3     
  14 C14           -1.4117    -0.5257     0.0127 C.2     
  15 C15            0.0021    -0.0041     0.0020 C.3     
  16 C16            1.2284     3.5792     0.0096 C.3     
  17 C17            2.6676     4.0261    -0.0018 C.2     
  18 C18            1.1699     2.0734     0.0020 C.2     
  19 C19            3.5189     4.1928    -1.1822 C.ar    
  20 C20            4.7699     4.6216    -0.7017 C.ar    
  21 C21            3.4126     4.3465     1.0679 C.2     
  22 C22            3.3220     4.0183    -2.5531 C.ar    
  23 C23            5.7992     4.8662    -1.6045 C.ar    
  24 C24            4.3473     4.2644    -3.4225 C.ar    
  25 C25            5.5833     4.6867    -2.9535 C.ar    
  26 H26           -4.0688    -4.1381    -0.5910 H       
  27 H27           -1.1284    -4.3200     0.2074 H       
  28 H28           -3.6522    -1.6939    -0.5616 H       
  29 H29           -3.6818    -5.1409     1.6645 H       
  30 H30           -2.0214    -5.4308     2.2365 H       
  31 H31           -3.5000    -1.4301     1.8992 H       
  32 H32           -4.5453    -2.8046     1.4675 H       
  33 H33           -2.9895    -3.4111     3.3006 H       
  34 H34           -1.6048    -2.9865     2.2659 H       
  35 H35           -2.5607    -4.6917    -2.4798 H       
  36 H36           -3.1758    -3.0274    -2.6201 H       
  37 H37           -1.5154    -3.3172    -2.0480 H       
  38 H38           -1.8207    -6.0498    -1.4288 H       
  39 H39           -1.5450    -6.7642     0.1781 H       
  40 H40           -3.2054    -6.4744    -0.3940 H       
  41 H41           -0.8943    -2.4742    -0.0027 H       
  42 H42            0.5123    -0.3556    -0.8948 H       
  43 H43            0.5293    -0.3651     0.8851 H       
  44 H44            0.7376     3.9574     0.9063 H       
  45 H45            0.7206     3.9670    -0.8736 H       
  46 H46            3.0692     4.3247     2.0916 H       
  47 H47            5.3892     4.9734     1.2641 H       
  48 H48            2.3632     3.6889    -2.9252 H       
  49 H49            6.7644     5.1961    -1.2494 H       
  50 H50            4.1944     4.1292    -4.4830 H       
  51 H51            6.3838     4.8776    -3.6530 H       
@<TRIPOS>BOND
   1    1   14 2
   2    2   15 1
   3    2   18 1
   4    3   18 2
   5    4    8 1
   6    4   14 am
   7    4   41 1
   8    5   20 1
   9    5   21 1
  10    5   47 1
  11    6    7 1
  12    6    8 1
  13    6   12 1
  14    6   26 1
  15    7    9 1
  16    7   13 1
  17    7   27 1
  18    8   10 1
  19    8   28 1
  20    9   11 1
  21    9   29 1
  22    9   30 1
  23   10   11 1
  24   10   31 1
  25   10   32 1
  26   11   33 1
  27   11   34 1
  28   12   35 1
  29   12   36 1
  30   12   37 1
  31   13   38 1
  32   13   39 1
  33   13   40 1
  34   14   15 1
  35   15   42 1
  36   15   43 1
  37   16   17 1
  38   16   18 1
  39   16   44 1
  40   16   45 1
  41   17   19 1
  42   17   21 2
  43   19   20 ar
  44   19   22 ar
  45   20   23 ar
  46   21   46 1
  47   22   24 ar
  48   22   48 1
  49   23   25 ar
  50   23   49 1
  51   24   25 ar
  52   24   50 1
  53   25   51 1

#	End of record

#	Name: 5178033
#	Creating user name:	landrgr1
#	Creation time:	28. 01. 2015 13:52

#	Modifying user name:	landrgr1
#	Modification time:	28. 01. 2015 13:52

#	Program:	corina 3.48 0006  22.01.2010

@<TRIPOS>MOLECULE
5178033
  48   50    0    0    0
SMALL
NO_CHARGES


@<TRIPOS>ATOM
   1 O1             0.3658     1.2152     0.3091 O.3     
   2 O2            -2.0754     0.2802     0.4299 O.2     
   3 O3             2.5510     0.9679     0.0123 O.2     
   4 N4            -1.6400    -1.8540     0.0078 N.am    
   5 N5             2.8159     5.1035     0.7011 N.pl3   
   6 N6             3.0354     3.7447     0.4395 N.2     
   7 N7             0.9119     4.0595     0.7300 N.2     
   8 N8             0.9517     6.4612     1.1449 N.2     
   9 C9            -7.1604    -3.1606    -0.0407 C.3     
  10 C10           -7.6383    -3.4078     1.3916 C.3     
  11 C11           -5.6939    -2.8136    -0.0280 C.ar    
  12 C12           -7.3785    -4.4235    -0.8763 C.3     
  13 C13           -5.2690    -1.5952    -0.5250 C.ar    
  14 C14           -4.7768    -3.7120     0.4857 C.ar    
  15 C15           -9.1510    -3.6372     1.3920 C.3     
  16 C16           -3.0016    -2.1762    -0.0040 C.ar    
  17 C17           -3.9257    -1.2740    -0.5145 C.ar    
  18 C18           -3.4322    -3.3968     0.4992 C.ar    
  19 C19           -1.2515    -0.5757     0.1852 C.2     
  20 C20            3.6434     6.1812     0.7924 C.2     
  21 C21            1.4667     5.2536     0.8769 C.2     
  22 C22            0.2066    -0.2097     0.0796 C.3     
  23 C23            1.8564     3.1516     0.4732 C.2     
  24 C24            3.1109     7.3988     1.0657 C.2     
  25 C25            5.1288     6.0236     0.5932 C.3     
  26 C26            1.7258     7.5163     1.2467 C.2     
  27 C27            1.6178     1.7080     0.2495 C.2     
  28 H28           -7.7252    -2.3356    -0.4748 H       
  29 H29           -7.1373    -4.2878     1.7950 H       
  30 H30           -7.4022    -2.5406     2.0082 H       
  31 H31           -6.8136    -5.2485    -0.4421 H       
  32 H32           -8.4392    -4.6745    -0.8854 H       
  33 H33           -7.0380    -4.2474    -1.8966 H       
  34 H34           -5.9881    -0.8941    -0.9222 H       
  35 H35           -5.1123    -4.6611     0.8769 H       
  36 H36           -9.6521    -2.7573     0.9886 H       
  37 H37           -9.3872    -4.5045     0.7754 H       
  38 H38           -9.4915    -3.8134     2.4124 H       
  39 H39           -3.5944    -0.3224    -0.9031 H       
  40 H40           -2.7164    -4.0987     0.9009 H       
  41 H41           -0.9757    -2.5506    -0.1118 H       
  42 H42            0.5729    -0.4605    -0.9159 H       
  43 H43            0.7753    -0.7638     0.8263 H       
  44 H44            3.7473     8.2680     1.1433 H       
  45 H45            5.3706     6.1601    -0.4608 H       
  46 H46            5.6562     6.7704     1.1867 H       
  47 H47            5.4340     5.0262     0.9098 H       
  48 H48            1.2924     8.4816     1.4628 H       
@<TRIPOS>BOND
   1    1   22 1
   2    1   27 1
   3    2   19 2
   4    3   27 2
   5    4   16 1
   6    4   19 am
   7    4   41 1
   8    5    6 1
   9    5   20 1
  10    5   21 1
  11    6   23 2
  12    7   21 2
  13    7   23 1
  14    8   21 1
  15    8   26 2
  16    9   10 1
  17    9   11 1
  18    9   12 1
  19    9   28 1
  20   10   15 1
  21   10   29 1
  22   10   30 1
  23   11   13 ar
  24   11   14 ar
  25   12   31 1
  26   12   32 1
  27   12   33 1
  28   13   17 ar
  29   13   34 1
  30   14   18 ar
  31   14   35 1
  32   15   36 1
  33   15   37 1
  34   15   38 1
  35   16   17 ar
  36   16   18 ar
  37   17   39 1
  38   18   40 1
  39   19   22 1
  40   20   24 2
  41   20   25 1
  42   22   42 1
  43   22   43 1
  44   23   27 1
  45   24   26 1
  46   24   44 1
  47   25   45 1
  48   25   46 1
  49   25   47 1
  50   26   48 1

#	End of record

#	Name: 5176545
#	Creating user name:	landrgr1
#	Creation time:	28. 01. 2015 13:52

#	Modifying user name:	landrgr1
#	Modification time:	28. 01. 2015 13:52

#	Program:	corina 3.48 0006  22.01.2010

@<TRIPOS>MOLECULE
5176545
  57   61    0    0    0
SMALL
NO_CHARGES


@<TRIPOS>ATOM
   1 S1            -1.5520     0.7167    -2.2938 S.o2    
   2 S2            -0.4769     1.8021    -5.0210 S.3     
   3 F3             3.0846     1.9554     8.4929 F       
   4 F4             1.9485     3.8558     7.9300 F       
   5 F5             4.1563     3.9730     8.5053 F       
   6 O6             0.9567     5.7105     0.3167 O.2     
   7 O7            -1.5274     3.0026    -3.4004 O.2     
   8 O8            -1.6084    -0.6272    -1.8356 O.2     
   9 O9            -2.6936     1.4324    -2.7453 O.2     
  10 N10            0.4090     3.0269     0.8933 N.pl3   
  11 N11            1.9595     2.5181     3.1521 N.3     
  12 N12           -0.9018     1.6055    -1.0571 N.am    
  13 C13            1.4552     1.9963     0.8131 C.3     
  14 C14           -0.1420     3.3578     2.2162 C.3     
  15 C15            2.5563     2.3410     1.8215 C.3     
  16 C16            1.0220     3.6489     3.1694 C.3     
  17 C17           -0.0433     3.6754    -0.2508 C.2     
  18 C18            2.9474     2.6719     4.1274 C.ar    
  19 C19           -0.6928     2.9710    -1.2173 C.2     
  20 C20            0.1775     5.1245    -0.4093 C.2     
  21 C21           -0.5613     5.8584    -1.4630 C.ar    
  22 C22           -1.1755     3.6501    -2.4338 C.2     
  23 C23           -1.2273     5.1290    -2.4652 C.ar    
  24 C24            2.5901     2.8529     5.4578 C.ar    
  25 C25            4.2892     2.6384     3.7703 C.ar    
  26 C26            3.5693     3.0042     6.4195 C.ar    
  27 C27           -0.6045     7.2450    -1.4744 C.ar    
  28 C28           -1.9239     5.8002    -3.4596 C.ar    
  29 C29            5.2636     2.7903     4.7375 C.ar    
  30 C30            4.9045     2.9760     6.0597 C.ar    
  31 C31           -1.3052     7.9031    -2.4752 C.ar    
  32 C32           -1.9587     7.1874    -3.4586 C.ar    
  33 C33            3.1828     3.2006     7.8628 C.3     
  34 C34           -0.3923     0.7419    -3.6201 C.2     
  35 C35            0.6845    -0.0396    -3.7150 C.2     
  36 C36            1.4519     0.1600    -4.8496 C.2     
  37 C37            0.9984     1.1037    -5.6760 C.2     
  38 H38            1.0292     1.0225     1.0548 H       
  39 H39            1.8734     1.9766    -0.1932 H       
  40 H40           -0.7798     4.2382     2.1375 H       
  41 H41           -0.7215     2.5149     2.5928 H       
  42 H42            3.0507     3.2641     1.5189 H       
  43 H43            3.2855     1.5315     1.8548 H       
  44 H44            0.6384     3.7880     4.1801 H       
  45 H45            1.5377     4.5538     2.8480 H       
  46 H46            1.5477     2.8757     5.7393 H       
  47 H47            4.5703     2.4934     2.7377 H       
  48 H48           -0.6666     1.1737    -0.2210 H       
  49 H49           -0.0951     7.8098    -0.7077 H       
  50 H50           -2.4366     5.2454    -4.2315 H       
  51 H51            6.3071     2.7640     4.4605 H       
  52 H52            5.6683     3.0953     6.8138 H       
  53 H53           -1.3396     8.9825    -2.4850 H       
  54 H54           -2.5005     7.7108    -4.2326 H       
  55 H55            0.9385    -0.7724    -2.9634 H       
  56 H56            2.3501    -0.4052    -5.0502 H       
  57 H57            1.4655     1.3942    -6.6055 H       
@<TRIPOS>BOND
   1    1    8 2
   2    1    9 2
   3    1   12 am
   4    1   34 1
   5    2   34 1
   6    2   37 1
   7    3   33 1
   8    4   33 1
   9    5   33 1
  10    6   20 2
  11    7   22 2
  12   10   13 1
  13   10   14 1
  14   10   17 1
  15   11   15 1
  16   11   16 1
  17   11   18 1
  18   12   19 1
  19   12   48 1
  20   13   15 1
  21   13   38 1
  22   13   39 1
  23   14   16 1
  24   14   40 1
  25   14   41 1
  26   15   42 1
  27   15   43 1
  28   16   44 1
  29   16   45 1
  30   17   19 2
  31   17   20 1
  32   18   24 ar
  33   18   25 ar
  34   19   22 1
  35   20   21 1
  36   21   23 ar
  37   21   27 ar
  38   22   23 1
  39   23   28 ar
  40   24   26 ar
  41   24   46 1
  42   25   29 ar
  43   25   47 1
  44   26   30 ar
  45   26   33 1
  46   27   31 ar
  47   27   49 1
  48   28   32 ar
  49   28   50 1
  50   29   30 ar
  51   29   51 1
  52   30   52 1
  53   31   32 ar
  54   31   53 1
  55   32   54 1
  56   34   35 2
  57   35   36 1
  58   35   55 1
  59   36   37 2
  60   36   56 1
  61   37   57 1

#	End of record

#	Name: 5175206
#	Creating user name:	landrgr1
#	Creation time:	28. 01. 2015 13:52

#	Modifying user name:	landrgr1
#	Modification time:	28. 01. 2015 13:52

#	Program:	corina 3.48 0006  22.01.2010

@<TRIPOS>MOLECULE
5175206
  38   38    0    0    0
SMALL
NO_CHARGES


@<TRIPOS>ATOM
   1 S1            -1.8131     1.1729     2.1647 S.2     
   2 S2            -3.6375    -0.9072    -1.2782 S.2     
   3 N3            -0.1887     1.4938     0.0879 N.am    
   4 N4            -2.4894    -2.7464     0.2562 N.am    
   5 N5            -1.0902     3.4461     0.9964 N.am    
   6 N6            -4.7289    -3.1172    -0.2885 N.am    
   7 C7            -0.1655     0.0974     0.0079 C.ar    
   8 C8            -1.3102    -2.0121     0.0916 C.ar    
   9 C9            -1.3373    -0.6272     0.1721 C.ar    
  10 C10            1.0299    -0.5650    -0.2419 C.ar    
  11 C11           -0.1105    -2.6688    -0.1532 C.ar    
  12 C12            1.0536    -1.9441    -0.3215 C.ar    
  13 C13           -0.9709     2.1036     1.0004 C.2     
  14 C14           -3.6172    -2.3600    -0.3726 C.2     
  15 C15           -1.9404     4.1089     1.9884 C.3     
  16 C16           -5.9547    -2.6972    -0.9720 C.3     
  17 C17           -1.9011     5.5992     1.7682 C.2     
  18 C18           -7.0420    -3.7102    -0.7213 C.2     
  19 C19           -3.0157     6.2656     1.5960 C.2     
  20 C20           -8.1881    -3.3289    -0.2143 C.2     
  21 H21           -2.2685    -0.1144     0.3627 H       
  22 H22            1.9416    -0.0013    -0.3743 H       
  23 H23           -0.0887    -3.7468    -0.2161 H       
  24 H24            1.9841    -2.4567    -0.5162 H       
  25 H25            0.3612     2.0231    -0.5107 H       
  26 H26           -2.4955    -3.5336     0.8229 H       
  27 H27           -0.6130     3.9734     0.3368 H       
  28 H28           -4.7174    -3.9403     0.2246 H       
  29 H29           -2.9655     3.7532     1.8841 H       
  30 H30           -1.5765     3.8799     2.9900 H       
  31 H31           -6.2686    -1.7255    -0.5908 H       
  32 H32           -5.7665    -2.6238    -2.0431 H       
  33 H33           -0.9539     6.1179     1.7523 H       
  34 H34           -6.8762    -4.7504    -0.9595 H       
  35 H35           -3.9629     5.7469     1.6119 H       
  36 H36           -2.9875     7.3336     1.4382 H       
  37 H37           -8.9673    -4.0548    -0.0346 H       
  38 H38           -8.3539    -2.2886     0.0239 H       
@<TRIPOS>BOND
   1    1   13 2
   2    2   14 2
   3    3    7 1
   4    3   13 am
   5    3   25 1
   6    4    8 1
   7    4   14 am
   8    4   26 1
   9    5   13 am
  10    5   15 1
  11    5   27 1
  12    6   14 am
  13    6   16 1
  14    6   28 1
  15    7    9 ar
  16    7   10 ar
  17    8    9 ar
  18    8   11 ar
  19    9   21 1
  20   10   12 ar
  21   10   22 1
  22   11   12 ar
  23   11   23 1
  24   12   24 1
  25   15   17 1
  26   15   29 1
  27   15   30 1
  28   16   18 1
  29   16   31 1
  30   16   32 1
  31   17   19 2
  32   17   33 1
  33   18   20 2
  34   18   34 1
  35   19   35 1
  36   19   36 1
  37   20   37 1
  38   20   38 1

#	End of record

#	Name: 5171630
#	Creating user name:	landrgr1
#	Creation time:	28. 01. 2015 13:52

#	Modifying user name:	landrgr1
#	Modification time:	28. 01. 2015 13:52

#	Program:	corina 3.48 0006  22.01.2010

@<TRIPOS>MOLECULE
5171630
  50   52    0    0    0
SMALL
NO_CHARGES


@<TRIPOS>ATOM
   1 Cl1           -8.7685    -2.0662     8.5217 Cl      
   2 S2            -0.0172     1.4168     0.0098 S.o2    
   3 F3            -8.5134     1.7086    12.8987 F       
   4 F4           -10.5616     1.5139    11.9058 F       
   5 F5            -9.3074     3.3950    11.5779 F       
   6 O6            -1.5665     2.2299    -3.9563 O.3     
   7 O7             0.0021    -0.0041     0.0020 O.2     
   8 O8             1.1617     2.2101     0.0028 O.2     
   9 O9            -4.2357     0.8419     4.8263 O.3     
  10 O10           -3.7177    -0.6250     3.2432 O.2     
  11 O11           -5.5746     1.5816     6.9496 O.2     
  12 N12           -0.9002     1.8797    -1.3124 N.am    
  13 N13           -6.7800    -0.2572     7.2455 N.am    
  14 N14           -7.0945     1.5052     8.7689 N.ar    
  15 C15           -0.7188     3.2091    -1.9168 C.3     
  16 C16           -1.8891     0.9738    -1.9179 C.3     
  17 C17           -0.5077     3.0300    -3.4245 C.3     
  18 C18           -1.6210     0.9035    -3.4256 C.3     
  19 C19           -0.9297     1.8941     1.4396 C.ar    
  20 C20           -1.8408     1.0214     1.9977 C.ar    
  21 C21           -0.7267     3.1411     2.0033 C.ar    
  22 C22           -2.5629     1.4013     3.1305 C.ar    
  23 C23           -1.4390     3.5241     3.1263 C.ar    
  24 C24           -2.3572     2.6637     3.6910 C.ar    
  25 C25           -3.5406     0.4722     3.7333 C.2     
  26 C26           -5.1791    -0.1217     5.3647 C.3     
  27 C27           -5.8580     0.4630     6.5764 C.2     
  28 C28           -7.4082     0.2838     8.3668 C.ar    
  29 C29           -8.6175     1.3689    10.5519 C.ar    
  30 C30           -8.3593    -0.4648     9.0524 C.ar    
  31 C31           -8.9755     0.0853    10.1641 C.ar    
  32 C32           -7.6650     2.0545     9.8239 C.ar    
  33 C33           -9.2615     2.0081    11.7552 C.3     
  34 H34           -1.6062     3.8169    -1.7400 H       
  35 H35            0.1531     3.6954    -1.4793 H       
  36 H36           -1.7922    -0.0202    -1.4811 H       
  37 H37           -2.8943     1.3565    -1.7412 H       
  38 H38            0.4471     2.5351    -3.6022 H       
  39 H39           -0.5091     4.0055    -3.9108 H       
  40 H40           -2.4233     0.3492    -3.9126 H       
  41 H41           -0.6703     0.4009    -3.6033 H       
  42 H42           -1.9954     0.0467     1.5590 H       
  43 H43           -0.0087     3.8186     1.5653 H       
  44 H44           -1.2757     4.4990     3.5613 H       
  45 H45           -2.9127     2.9640     4.5671 H       
  46 H46           -5.9272    -0.3593     4.6084 H       
  47 H47           -4.6482    -1.0303     5.6487 H       
  48 H48           -7.0067    -1.1519     6.9470 H       
  49 H49           -9.7174    -0.4720    10.7167 H       
  50 H50           -7.3834     3.0536    10.1222 H       
@<TRIPOS>BOND
   1    1   30 1
   2    2    7 2
   3    2    8 2
   4    2   12 am
   5    2   19 1
   6    3   33 1
   7    4   33 1
   8    5   33 1
   9    6   17 1
  10    6   18 1
  11    9   25 1
  12    9   26 1
  13   10   25 2
  14   11   27 2
  15   12   15 1
  16   12   16 1
  17   13   27 am
  18   13   28 1
  19   13   48 1
  20   14   28 ar
  21   14   32 ar
  22   15   17 1
  23   15   34 1
  24   15   35 1
  25   16   18 1
  26   16   36 1
  27   16   37 1
  28   17   38 1
  29   17   39 1
  30   18   40 1
  31   18   41 1
  32   19   20 ar
  33   19   21 ar
  34   20   22 ar
  35   20   42 1
  36   21   23 ar
  37   21   43 1
  38   22   24 ar
  39   22   25 1
  40   23   24 ar
  41   23   44 1
  42   24   45 1
  43   26   27 1
  44   26   46 1
  45   26   47 1
  46   28   30 ar
  47   29   31 ar
  48   29   32 ar
  49   29   33 1
  50   30   31 ar
  51   31   49 1
  52   32   50 1

#	End of record

#	Name: 5166133
#	Creating user name:	landrgr1
#	Creation time:	28. 01. 2015 13:52

#	Modifying user name:	landrgr1
#	Modification time:	28. 01. 2015 13:52

#	Program:	corina 3.48 0006  22.01.2010

@<TRIPOS>MOLECULE
5166133
  55   58    0    0    0
SMALL
NO_CHARGES


@<TRIPOS>ATOM
   1 S1            -0.0146     1.7572    -0.2270 S.3     
   2 O2            -0.7879    -2.1936    -0.8101 O.3     
   3 O3             5.4476    -3.1599     1.1269 O.3     
   4 N4             4.2850    -0.8429    -0.0416 N.pl3   
   5 N5             2.5109     2.9291    -0.0022 N.ar    
   6 N6             4.3816     1.5290     0.0673 N.ar    
   7 N7             4.6515     3.8413     0.1848 N.pl3   
   8 N8             6.0490     3.8224     0.2811 N.2     
   9 C9             0.2576    -2.7213     0.0115 C.3     
  10 C10            1.5587    -1.9672    -0.2795 C.3     
  11 C11            1.2622    -0.4728    -0.2350 C.2     
  12 C12            0.0112     0.0033    -0.3017 C.2     
  13 C13            2.2695     0.5565    -0.1206 C.ar    
  14 C14           -1.2144    -0.8827    -0.4266 C.3     
  15 C15           -0.1143    -2.5483     1.4855 C.3     
  16 C16            0.4488    -4.2077    -0.2969 C.3     
  17 C17            1.7242     1.8493    -0.1029 C.ar    
  18 C18            3.6800     0.4008    -0.0297 C.ar    
  19 C19            5.7295    -0.9568     0.1742 C.3     
  20 C20            3.8194     2.7262     0.0797 C.ar    
  21 C21            6.1398    -2.4295     0.1123 C.3     
  22 C22            7.6485    -2.5485     0.3377 C.3     
  23 C23            4.2506     5.1394     0.2180 C.2     
  24 C24            8.0785    -4.0051     0.1525 C.3     
  25 C25            5.3585     5.9069     0.3311 C.2     
  26 C26            6.4708     5.0577     0.3636 C.2     
  27 C27            2.8291     5.6341     0.1424 C.3     
  28 C28            7.9088     5.4923     0.4827 C.3     
  29 H29            2.3051    -2.2168     0.4747 H       
  30 H30            1.9285    -2.2396    -1.2680 H       
  31 H31           -1.8831    -0.4780    -1.1863 H       
  32 H32           -1.7306    -0.9312     0.5322 H       
  33 H33           -1.0421    -3.0822     1.6911 H       
  34 H34            0.6826    -2.9505     2.1109 H       
  35 H35           -0.2485    -1.4890     1.7044 H       
  36 H36            0.7155    -4.3295    -1.3468 H       
  37 H37            1.2455    -4.6092     0.3293 H       
  38 H38           -0.4785    -4.7432    -0.0931 H       
  39 H39            3.7529    -1.6397    -0.1928 H       
  40 H40            6.2576    -0.3997    -0.5997 H       
  41 H41            5.9840    -0.5496     1.1527 H       
  42 H42            5.8854    -2.8367    -0.8662 H       
  43 H43            8.1740    -1.9203    -0.3816 H       
  44 H44            7.8914    -2.2237     1.3494 H       
  45 H45            7.8355    -4.3299    -0.8592 H       
  46 H46            9.1532    -4.0899     0.3131 H       
  47 H47            7.5530    -4.6333     0.8718 H       
  48 H48            5.3812     6.9855     0.3829 H       
  49 H49            5.6271    -2.8512     2.0256 H       
  50 H50            2.4151     5.7052     1.1482 H       
  51 H51            2.8110     6.6171    -0.3283 H       
  52 H52            2.2330     4.9378    -0.4475 H       
  53 H53            8.3270     5.6415    -0.5128 H       
  54 H54            7.9610     6.4262     1.0424 H       
  55 H55            8.4787     4.7236     1.0047 H       
@<TRIPOS>BOND
   1    1   12 1
   2    1   17 1
   3    2    9 1
   4    2   14 1
   5    3   21 1
   6    3   49 1
   7    4   18 1
   8    4   19 1
   9    4   39 1
  10    5   17 ar
  11    5   20 ar
  12    6   18 ar
  13    6   20 ar
  14    7    8 1
  15    7   20 1
  16    7   23 1
  17    8   26 2
  18    9   10 1
  19    9   15 1
  20    9   16 1
  21   10   11 1
  22   10   29 1
  23   10   30 1
  24   11   12 2
  25   11   13 1
  26   12   14 1
  27   13   17 ar
  28   13   18 ar
  29   14   31 1
  30   14   32 1
  31   15   33 1
  32   15   34 1
  33   15   35 1
  34   16   36 1
  35   16   37 1
  36   16   38 1
  37   19   21 1
  38   19   40 1
  39   19   41 1
  40   21   22 1
  41   21   42 1
  42   22   24 1
  43   22   43 1
  44   22   44 1
  45   23   25 2
  46   23   27 1
  47   24   45 1
  48   24   46 1
  49   24   47 1
  50   25   26 1
  51   25   48 1
  52   26   28 1
  53   27   50 1
  54   27   51 1
  55   27   52 1
  56   28   53 1
  57   28   54 1
  58   28   55 1

#	End of record

#	Name: 5162416
#	Creating user name:	landrgr1
#	Creation time:	28. 01. 2015 13:52

#	Modifying user name:	landrgr1
#	Modification time:	28. 01. 2015 13:52

#	Program:	corina 3.48 0006  22.01.2010

@<TRIPOS>MOLECULE
5162416
  42   45    0    0    0
SMALL
NO_CHARGES


@<TRIPOS>ATOM
   1 Cl1           -1.9867    -4.9892     0.8189 Cl      
   2 S2             0.5940     1.1800     1.0720 S.3     
   3 O3            -5.9664     0.2749    -0.3574 O.2     
   4 O4            -7.3093    -4.6960     0.6665 O.2     
   5 O5            -1.8663    -0.1463     1.1786 O.2     
   6 O6             2.2012     3.2842     2.2659 O.3     
   7 N7            -1.5110    -2.1229     0.2359 N.am    
   8 N8             2.9201     2.4799     1.3487 N.ar    
   9 C9            -5.1789    -1.8347     0.2858 C.ar    
  10 C10           -5.5401    -3.1688     0.5611 C.ar    
  11 C11           -7.6162    -1.1231     0.5417 C.ar    
  12 C12           -7.9759    -2.4559     0.8162 C.ar    
  13 C13           -6.2332    -0.8103     0.1196 C.2     
  14 C14           -6.9672    -3.5298     0.6803 C.2     
  15 C15           -3.8381    -1.4905     0.1782 C.ar    
  16 C16           -2.8584    -2.4664     0.3437 C.ar    
  17 C17           -4.5509    -4.1358     0.7198 C.ar    
  18 C18           -3.2180    -3.7824     0.6155 C.ar    
  19 C19           -8.5626    -0.1127     0.6705 C.ar    
  20 C20           -9.2749    -2.7514     1.2134 C.ar    
  21 C21           -9.8521    -0.4242     1.0677 C.ar    
  22 C22          -10.2056    -1.7333     1.3370 C.ar    
  23 C23           -1.0908    -0.9079     0.6405 C.2     
  24 C24            0.3425    -0.4956     0.4243 C.3     
  25 C25            2.2968     1.4835     0.7356 C.ar    
  26 C26            2.9748     0.6756    -0.1704 C.ar    
  27 C27            4.1930     2.7437     1.1212 C.ar    
  28 C28            4.3121     0.9248    -0.4251 C.ar    
  29 C29            4.9266     1.9809     0.2333 C.ar    
  30 H30           -3.5558    -0.4698    -0.0334 H       
  31 H31           -4.8241    -5.1591     0.9312 H       
  32 H32           -8.2928     0.9120     0.4617 H       
  33 H33           -9.5577    -3.7721     1.4247 H       
  34 H34           -0.8762    -2.7584    -0.1302 H       
  35 H35          -10.5867     0.3611     1.1683 H       
  36 H36          -11.2146    -1.9637     1.6454 H       
  37 H37            0.5679    -0.5106    -0.6420 H       
  38 H38            1.0025    -1.1894     0.9450 H       
  39 H39            2.4647    -0.1357    -0.6684 H       
  40 H40            4.6671     3.5664     1.6356 H       
  41 H41            4.8642     0.3137    -1.1239 H       
  42 H42            5.9677     2.2046     0.0527 H       
@<TRIPOS>BOND
   1    1   18 1
   2    2   24 1
   3    2   25 1
   4    3   13 2
   5    4   14 2
   6    5   23 2
   7    6    8 1
   8    7   16 1
   9    7   23 am
  10    7   34 1
  11    8   25 ar
  12    8   27 ar
  13    9   10 ar
  14    9   13 1
  15    9   15 ar
  16   10   14 1
  17   10   17 ar
  18   11   12 ar
  19   11   13 1
  20   11   19 ar
  21   12   14 1
  22   12   20 ar
  23   15   16 ar
  24   15   30 1
  25   16   18 ar
  26   17   18 ar
  27   17   31 1
  28   19   21 ar
  29   19   32 1
  30   20   22 ar
  31   20   33 1
  32   21   22 ar
  33   21   35 1
  34   22   36 1
  35   23   24 1
  36   24   37 1
  37   24   38 1
  38   25   26 ar
  39   26   28 ar
  40   26   39 1
  41   27   29 ar
  42   27   40 1
  43   28   29 ar
  44   28   41 1
  45   29   42 1

#	End of record

#	Name: 5160429
#	Creating user name:	landrgr1
#	Creation time:	28. 01. 2015 13:52

#	Modifying user name:	landrgr1
#	Modification time:	28. 01. 2015 13:52

#	Program:	corina 3.48 0006  22.01.2010

@<TRIPOS>MOLECULE
5160429
  39   40    0    0    0
SMALL
NO_CHARGES


@<TRIPOS>ATOM
   1 S1            -2.7126     1.5330     0.0230 S.2     
   2 O2             2.2405     1.8606    -0.0081 O.2     
   3 N3            -0.0178     1.4608     0.0101 N.am    
   4 N4            -0.8794     3.5180     0.0242 N.am    
   5 C5             0.0021    -0.0041     0.0020 C.3     
   6 C6            -0.7002    -0.5305     1.2552 C.3     
   7 C7            -0.7241    -0.5171    -1.2431 C.3     
   8 C8            -0.6795    -2.0604     1.2468 C.3     
   9 C9            -0.7033    -2.0470    -1.2515 C.3     
  10 C10           -1.4056    -2.5734     0.0017 C.3     
  11 C11            0.5865     3.6638     0.0152 C.3     
  12 C12            1.0867     2.2329     0.0037 C.2     
  13 C13           -1.1347     2.1972     0.0189 C.2     
  14 C14            1.0461     4.4043    -1.2423 C.3     
  15 C15            0.5411     5.8479    -1.1973 C.3     
  16 C16            1.0007     6.5884    -2.4548 C.3     
  17 C17            0.4956     8.0319    -2.4099 C.3     
  18 H18            1.0345    -0.3534    -0.0097 H       
  19 H19           -0.1829    -0.1650     2.1423 H       
  20 H20           -1.7327    -0.1812     1.2669 H       
  21 H21           -1.7565    -0.1678    -1.2314 H       
  22 H22           -0.2237    -0.1421    -2.1359 H       
  23 H23            0.3530    -2.4097     1.2351 H       
  24 H24           -1.1798    -2.4354     2.1396 H       
  25 H25           -1.2207    -2.4125    -2.1386 H       
  26 H26            0.3291    -2.3963    -1.2633 H       
  27 H27           -1.3909    -3.6633    -0.0043 H       
  28 H28           -2.4381    -2.2241     0.0134 H       
  29 H29            0.9259     4.1819     0.9121 H       
  30 H30            2.1351     4.4017    -1.2879 H       
  31 H31            0.6443     3.9061    -2.1246 H       
  32 H32           -1.5330     4.2347     0.0332 H       
  33 H33           -0.5480     5.8505    -1.1517 H       
  34 H34            0.9429     6.3461    -0.3150 H       
  35 H35            2.0897     6.5857    -2.5004 H       
  36 H36            0.5989     6.0902    -3.3371 H       
  37 H37           -0.5934     8.0346    -2.3643 H       
  38 H38            0.8974     8.5301    -1.5276 H       
  39 H39            0.8231     8.5595    -3.3057 H       
@<TRIPOS>BOND
   1    1   13 2
   2    2   12 2
   3    3    5 1
   4    3   12 am
   5    3   13 am
   6    4   11 1
   7    4   13 am
   8    4   32 1
   9    5    6 1
  10    5    7 1
  11    5   18 1
  12    6    8 1
  13    6   19 1
  14    6   20 1
  15    7    9 1
  16    7   21 1
  17    7   22 1
  18    8   10 1
  19    8   23 1
  20    8   24 1
  21    9   10 1
  22    9   25 1
  23    9   26 1
  24   10   27 1
  25   10   28 1
  26   11   12 1
  27   11   14 1
  28   11   29 1
  29   14   15 1
  30   14   30 1
  31   14   31 1
  32   15   16 1
  33   15   33 1
  34   15   34 1
  35   16   17 1
  36   16   35 1
  37   16   36 1
  38   17   37 1
  39   17   38 1
  40   17   39 1

#	End of record

#	Name: 5159350
#	Creating user name:	landrgr1
#	Creation time:	28. 01. 2015 13:52

#	Modifying user name:	landrgr1
#	Modification time:	28. 01. 2015 13:52

#	Program:	corina 3.48 0006  22.01.2010

@<TRIPOS>MOLECULE
5159350
  27   29    0    0    0
SMALL
NO_CHARGES


@<TRIPOS>ATOM
   1 Cl1            3.9704     0.3232    -0.0335 Cl      
   2 S2            -0.0218     1.7556     0.0117 S.3     
   3 O3             3.7301     3.0243    -0.0182 O.2     
   4 N4             1.8864     4.2642     0.0066 N.am    
   5 N5             2.1494     6.6718     0.0165 N.2     
   6 N6             3.9625     5.5404    -0.0078 N.2     
   7 N7             3.2645     7.5258     0.0095 N.pl3   
   8 N8             4.3141     6.7771    -0.0051 N.2     
   9 C9             1.3274    -0.4556    -0.0131 C.ar    
  10 C10            0.0021    -0.0041     0.0020 C.ar    
  11 C11            2.2565     0.5989    -0.0163 C.2     
  12 C12            1.7313     1.8300    -0.0046 C.2     
  13 C13           -1.0484    -0.9280     0.0071 C.ar    
  14 C14           -0.7828    -2.2760    -0.0022 C.ar    
  15 C15            1.5678    -1.8504    -0.0220 C.ar    
  16 C16            0.5308    -2.7292    -0.0168 C.ar    
  17 C17            2.5142     3.0717    -0.0059 C.2     
  18 C18           -1.9191    -3.2659     0.0038 C.3     
  19 C19            2.6321     5.4468     0.0054 C.2     
  20 H20           -2.0709    -0.5807     0.0187 H       
  21 H21            2.5828    -2.2192    -0.0340 H       
  22 H22            0.7299    -3.7907    -0.0237 H       
  23 H23           -2.2030    -3.4994    -1.0223 H       
  24 H24           -1.6036    -4.1782     0.5100 H       
  25 H25           -2.7726    -2.8360     0.5281 H       
  26 H26            0.9172     4.3020     0.0163 H       
  27 H27            3.2480     8.4957     0.0143 H       
@<TRIPOS>BOND
   1    1   11 1
   2    2   10 1
   3    2   12 1
   4    3   17 2
   5    4   17 am
   6    4   19 1
   7    4   26 1
   8    5    7 1
   9    5   19 2
  10    6    8 2
  11    6   19 1
  12    7    8 1
  13    7   27 1
  14    9   10 ar
  15    9   11 1
  16    9   15 ar
  17   10   13 ar
  18   11   12 2
  19   12   17 1
  20   13   14 ar
  21   13   20 1
  22   14   16 ar
  23   14   18 1
  24   15   16 ar
  25   15   21 1
  26   16   22 1
  27   18   23 1
  28   18   24 1
  29   18   25 1

#	End of record

#	Name: 5157220
#	Creating user name:	landrgr1
#	Creation time:	28. 01. 2015 13:52

#	Modifying user name:	landrgr1
#	Modification time:	28. 01. 2015 13:52

#	Program:	corina 3.48 0006  22.01.2010

@<TRIPOS>MOLECULE
5157220
  52   54    0    0    0
SMALL
NO_CHARGES


@<TRIPOS>ATOM
   1 Cl1           -2.0930    -0.5462     1.2956 Cl      
   2 Cl2            0.4240     4.2348     1.3056 Cl      
   3 S3            -0.0172     1.4168     0.0098 S.o2    
   4 O4            -2.4573     7.1063    -4.3361 O.2     
   5 O5            -1.9106     4.7045    -3.4525 O.3     
   6 O6            -1.7648     2.5139    -3.7040 O.2     
   7 O7             0.0021    -0.0041     0.0020 O.2     
   8 O8             1.1617     2.2101     0.0028 O.2     
   9 N9            -3.0095     7.3091    -9.0812 N.3     
  10 N10           -3.0883     6.5724    -6.3949 N.am    
  11 N11           -0.9002     1.8797    -1.3124 N.am    
  12 C12           -2.6244     8.2919    -8.0596 C.3     
  13 C13           -2.5924     5.9531    -8.7001 C.3     
  14 C14           -3.3538     7.9748    -6.7498 C.3     
  15 C15           -3.3205     5.5401    -7.4165 C.3     
  16 C16           -2.4940     7.6585   -10.3314 C.ar    
  17 C17           -2.6437     6.2420    -5.1663 C.2     
  18 C18           -2.3781     4.7986    -4.8239 C.3     
  19 C19           -2.7450     6.8557   -11.4370 C.ar    
  20 C20           -1.7340     8.8126   -10.4732 C.ar    
  21 C21           -2.2337     7.2041   -12.6717 C.ar    
  22 C22           -1.2258     9.1551   -11.7108 C.ar    
  23 C23           -1.4728     8.3507   -12.8082 C.ar    
  24 C24           -1.6270     3.4775    -2.9882 C.2     
  25 C25           -1.1366     3.3017    -1.5741 C.3     
  26 C26           -0.9297     1.8941     1.4396 C.ar    
  27 C27           -1.8437     1.0205     2.0006 C.ar    
  28 C28           -0.7281     3.1405     2.0048 C.ar    
  29 C29           -2.5596     1.3957     3.1236 C.ar    
  30 C30           -1.4445     3.5146     3.1278 C.ar    
  31 C31           -2.3619     2.6434     3.6846 C.ar    
  32 H32           -1.5476     8.2446    -7.8970 H       
  33 H33           -2.8983     9.2920    -8.3955 H       
  34 H34           -2.8431     5.2570    -9.5005 H       
  35 H35           -1.5161     5.9383    -8.5285 H       
  36 H36           -4.4256     8.1223    -6.8826 H       
  37 H37           -2.9866     8.6285    -5.9587 H       
  38 H38           -2.9313     4.5841    -7.0662 H       
  39 H39           -4.3891     5.4536    -7.6134 H       
  40 H40           -1.6175     4.4000    -5.4953 H       
  41 H41           -3.2976     4.2238    -4.9346 H       
  42 H42           -3.3389     5.9599   -11.3310 H       
  43 H43           -1.5411     9.4415    -9.6167 H       
  44 H44           -2.4282     6.5802   -13.5315 H       
  45 H45           -0.6352    10.0525   -11.8219 H       
  46 H46           -1.0742     8.6208   -13.7749 H       
  47 H47           -1.8873     3.6790    -0.8796 H       
  48 H48           -0.2072     3.8551    -1.4403 H       
  49 H49           -1.2609     1.2094    -1.9136 H       
  50 H50           -3.2732     0.7137     3.5618 H       
  51 H51           -1.2872     4.4877     3.5692 H       
  52 H52           -2.9211     2.9360     4.5610 H       
@<TRIPOS>BOND
   1    1   27 1
   2    2   28 1
   3    3    7 2
   4    3    8 2
   5    3   11 am
   6    3   26 1
   7    4   17 2
   8    5   18 1
   9    5   24 1
  10    6   24 2
  11    9   12 1
  12    9   13 1
  13    9   16 1
  14   10   14 1
  15   10   15 1
  16   10   17 am
  17   11   25 1
  18   11   49 1
  19   12   14 1
  20   12   32 1
  21   12   33 1
  22   13   15 1
  23   13   34 1
  24   13   35 1
  25   14   36 1
  26   14   37 1
  27   15   38 1
  28   15   39 1
  29   16   19 ar
  30   16   20 ar
  31   17   18 1
  32   18   40 1
  33   18   41 1
  34   19   21 ar
  35   19   42 1
  36   20   22 ar
  37   20   43 1
  38   21   23 ar
  39   21   44 1
  40   22   23 ar
  41   22   45 1
  42   23   46 1
  43   24   25 1
  44   25   47 1
  45   25   48 1
  46   26   27 ar
  47   26   28 ar
  48   27   29 ar
  49   28   30 ar
  50   29   31 ar
  51   29   50 1
  52   30   31 ar
  53   30   51 1
  54   31   52 1

#	End of record

#	Name: 5155942
#	Creating user name:	landrgr1
#	Creation time:	28. 01. 2015 13:52

#	Modifying user name:	landrgr1
#	Modification time:	28. 01. 2015 13:52

#	Program:	corina 3.48 0006  22.01.2010

@<TRIPOS>MOLECULE
5155942
  35   36    0    0    0
SMALL
NO_CHARGES


@<TRIPOS>ATOM
   1 S1            -0.0218     1.7546     0.0117 S.3     
   2 O2            -7.1319    -0.7032     0.0648 O.3     
   3 O3           -10.5158     1.4809     0.1082 O.2     
   4 O4            -8.4068     1.4322     0.0892 O.2     
   5 O5            -4.8650     0.5840     0.0502 O.2     
   6 N6            -9.4754     0.8477     0.0954 N.pl3   
   7 N7            -3.5034    -1.1679     0.0288 N.am    
   8 N8            -2.3717    -0.3421     0.0224 N.2     
   9 C9            -8.3252    -1.3536     0.0726 C.ar    
  10 C10          -10.7542    -2.6775     0.0876 C.ar    
  11 C11           -9.5097    -0.6319     0.0873 C.ar    
  12 C12          -10.7215    -1.2955     0.0947 C.ar    
  13 C13           -8.3607    -2.7406     0.0602 C.ar    
  14 C14           -9.5747    -3.3993     0.0677 C.ar    
  15 C15          -12.0774    -3.3987     0.0958 C.3     
  16 C16           -5.9530    -1.5107     0.0498 C.3     
  17 C17           -4.7357    -0.6224     0.0429 C.2     
  18 C18            0.0021    -0.0041     0.0020 C.2     
  19 C19            1.2946    -0.4375    -0.0127 C.2     
  20 C20           -1.1825    -0.8685     0.0087 C.2     
  21 C21            2.2329     0.5707    -0.0162 C.2     
  22 C22            1.7354     1.8117    -0.0048 C.2     
  23 H23          -11.6440    -0.7340     0.1058 H       
  24 H24           -7.4399    -3.3047     0.0443 H       
  25 H25           -9.6029    -4.4789     0.0622 H       
  26 H26          -12.4057    -3.5671    -0.9299 H       
  27 H27          -11.9659    -4.3568     0.6035 H       
  28 H28          -12.8176    -2.7939     0.6196 H       
  29 H29           -5.9354    -2.1444     0.9365 H       
  30 H30           -5.9519    -2.1355    -0.8434 H       
  31 H31           -3.4000    -2.1324     0.0229 H       
  32 H32            1.5605    -1.4842    -0.0205 H       
  33 H33           -1.0674    -1.9424     0.0022 H       
  34 H34            3.2946     0.3729    -0.0271 H       
  35 H35            2.3260     2.7159    -0.0056 H       
@<TRIPOS>BOND
   1    1   18 1
   2    1   22 1
   3    2    9 1
   4    2   16 1
   5    3    6 2
   6    4    6 2
   7    5   17 2
   8    6   11 1
   9    7    8 1
  10    7   17 am
  11    7   31 1
  12    8   20 2
  13    9   11 ar
  14    9   13 ar
  15   10   12 ar
  16   10   14 ar
  17   10   15 1
  18   11   12 ar
  19   12   23 1
  20   13   14 ar
  21   13   24 1
  22   14   25 1
  23   15   26 1
  24   15   27 1
  25   15   28 1
  26   16   17 1
  27   16   29 1
  28   16   30 1
  29   18   19 2
  30   18   20 1
  31   19   21 1
  32   19   32 1
  33   20   33 1
  34   21   22 2
  35   21   34 1
  36   22   35 1

#	End of record

#	Name: 5154990
#	Creating user name:	landrgr1
#	Creation time:	28. 01. 2015 13:52

#	Modifying user name:	landrgr1
#	Modification time:	28. 01. 2015 13:52

#	Program:	corina 3.48 0006  22.01.2010

@<TRIPOS>MOLECULE
5154990
  48   50    0    0    0
SMALL
NO_CHARGES


@<TRIPOS>ATOM
   1 O1            -0.1109     1.3260     0.1773 O.3     
   2 O2             3.1425     2.6707     0.2978 O.3     
   3 O3            -8.8845    -2.7826    -2.9256 O.2     
   4 O4            -7.7646    -1.6642    -1.5307 O.2     
   5 O5           -10.0505     0.1132    -6.9664 O.2     
   6 O6            -8.4985     1.2364    -7.8498 O.2     
   7 N7            -2.0773    -0.2248    -1.2768 N.3     
   8 N8            -5.4679    -0.8796    -2.6971 N.pl3   
   9 N9            -8.1210    -1.8665    -2.6777 N.pl3   
  10 N10           -8.9038     0.5235    -6.9492 N.pl3   
  11 N11            2.2423     1.5861     0.1573 N.2     
  12 N12            2.3732     3.8441     0.4939 N.2     
  13 C13           -3.4143    -0.8263    -1.3699 C.3     
  14 C14           -4.1346    -0.2798    -2.6042 C.3     
  15 C15           -1.3547    -0.7274    -0.1007 C.3     
  16 C16           -6.3183    -0.5322    -3.7492 C.ar    
  17 C17            0.0300    -0.0797    -0.0378 C.3     
  18 C18           -7.6261    -0.9992    -3.7704 C.ar    
  19 C19           -5.8595     0.2860    -4.7741 C.ar    
  20 C20           -8.4644    -0.6537    -4.8124 C.ar    
  21 C21           -8.0028     0.1557    -5.8339 C.ar    
  22 C22           -6.7028     0.6275    -5.8128 C.ar    
  23 C23            1.0308     2.0541     0.2584 C.2     
  24 C24            1.1116     3.5025     0.4745 C.2     
  25 C25           -0.0404     4.4218     0.6427 C.ar    
  26 C26            0.0556     5.5131     1.5043 C.ar    
  27 C27           -1.2208     4.2007    -0.0644 C.ar    
  28 C28           -1.0194     6.3650     1.6570 C.ar    
  29 C29           -2.2894     5.0592     0.0961 C.ar    
  30 C30           -2.1905     6.1374     0.9569 C.ar    
  31 H31           -3.3205    -1.9090    -1.4537 H       
  32 H32           -3.9869    -0.5793    -0.4760 H       
  33 H33           -3.5619    -0.5268    -3.4981 H       
  34 H34           -4.2283     0.8030    -2.5204 H       
  35 H35           -1.9131    -0.4796     0.8020 H       
  36 H36           -1.2467    -1.8094    -0.1757 H       
  37 H37           -1.5491    -0.3849    -2.1214 H       
  38 H38           -5.7602    -1.5181    -2.0279 H       
  39 H39            0.5551    -0.2527    -0.9772 H       
  40 H40            0.5990    -0.5176     0.7824 H       
  41 H41           -4.8445     0.6547    -4.7582 H       
  42 H42           -9.4815    -1.0165    -4.8294 H       
  43 H43           -6.3468     1.2634    -6.6098 H       
  44 H44            0.9694     5.6915     2.0517 H       
  45 H45           -1.2990     3.3593    -0.7371 H       
  46 H46           -0.9462     7.2108     2.3247 H       
  47 H47           -3.2045     4.8890    -0.4517 H       
  48 H48           -3.0293     6.8065     1.0797 H       
@<TRIPOS>BOND
   1    1   17 1
   2    1   23 1
   3    2   11 1
   4    2   12 1
   5    3    9 2
   6    4    9 2
   7    5   10 2
   8    6   10 2
   9    7   13 1
  10    7   15 1
  11    7   37 1
  12    8   14 1
  13    8   16 1
  14    8   38 1
  15    9   18 1
  16   10   21 1
  17   11   23 2
  18   12   24 2
  19   13   14 1
  20   13   31 1
  21   13   32 1
  22   14   33 1
  23   14   34 1
  24   15   17 1
  25   15   35 1
  26   15   36 1
  27   16   18 ar
  28   16   19 ar
  29   17   39 1
  30   17   40 1
  31   18   20 ar
  32   19   22 ar
  33   19   41 1
  34   20   21 ar
  35   20   42 1
  36   21   22 ar
  37   22   43 1
  38   23   24 1
  39   24   25 1
  40   25   26 ar
  41   25   27 ar
  42   26   28 ar
  43   26   44 1
  44   27   29 ar
  45   27   45 1
  46   28   30 ar
  47   28   46 1
  48   29   30 ar
  49   29   47 1
  50   30   48 1

#	End of record

#	Name: 5154752
#	Creating user name:	landrgr1
#	Creation time:	28. 01. 2015 13:52

#	Modifying user name:	landrgr1
#	Modification time:	28. 01. 2015 13:52

#	Program:	corina 3.48 0006  22.01.2010

@<TRIPOS>MOLECULE
5154752
  56   57    0    0    0
SMALL
NO_CHARGES


@<TRIPOS>ATOM
   1 S1             0.0153     0.8748     0.0202 S.o2    
   2 O2             0.0774    -0.5405     0.1300 O.2     
   3 O3             1.1695     1.6984    -0.0746 O.2     
   4 O4            -4.7666     1.5176     4.2169 O.2     
   5 O5            -8.4065     0.7756     4.9527 O.2     
   6 N6            -0.9026     1.2002    -1.3191 N.am    
   7 N7            -7.2051     2.6397     4.8930 N.am    
   8 N8            -3.0237     2.7881     4.7369 N.am    
   9 C9            -6.4738     2.2630     6.1053 C.3     
  10 C10           -5.0903     2.9163     6.0900 C.3     
  11 C11           -0.8878     1.4435     1.4222 C.ar    
  12 C12           -0.7543     2.4806    -2.0154 C.3     
  13 C13           -1.8630     0.2076    -1.8077 C.3     
  14 C14           -7.2367     2.7305     7.3179 C.ar    
  15 C15           -4.2830     2.3565     4.9473 C.2     
  16 C16           -2.3061     2.3364     3.6238 C.ar    
  17 C17           -1.7651     0.5926     2.0693 C.ar    
  18 C18           -0.7137     2.7379     1.8765 C.ar    
  19 C19           -2.4745     1.0353     3.1685 C.ar    
  20 C20           -1.4201     3.1866     2.9752 C.ar    
  21 C21            0.2275     2.3184    -3.1776 C.3     
  22 C22           -3.2482     0.5127    -1.2341 C.3     
  23 C23           -7.2381     1.9671     8.4703 C.ar    
  24 C24           -7.9305     3.9255     7.2796 C.ar    
  25 C25           -8.1212     1.8006     4.3705 C.2     
  26 C26           -7.9380     2.3959     9.5826 C.ar    
  27 C27           -8.6304     4.3543     8.3919 C.ar    
  28 C28           -8.6361     3.5883     9.5426 C.ar    
  29 C29           -8.7911     2.1359     3.0629 C.3     
  30 H30           -6.3634     1.1792     6.1410 H       
  31 H31           -5.1986     3.9937     5.9649 H       
  32 H32           -4.5804     2.7092     7.0309 H       
  33 H33           -1.7231     2.7994    -2.4000 H       
  34 H34           -0.3747     3.2300    -1.3209 H       
  35 H35           -1.9038     0.2466    -2.8962 H       
  36 H36           -1.5498    -0.7874    -1.4913 H       
  37 H37           -7.0299     3.4931     4.4664 H       
  38 H38           -1.8959    -0.4190     1.7145 H       
  39 H39           -0.0242     3.3985     1.3719 H       
  40 H40           -2.6147     3.4118     5.3571 H       
  41 H41           -3.1627     0.3716     3.6708 H       
  42 H42           -1.2872     4.1991     3.3267 H       
  43 H43           -0.1522     1.5690    -3.8721 H       
  44 H44            0.3378     3.2711    -3.6956 H       
  45 H45            1.1963     1.9996    -2.7930 H       
  46 H46           -3.9627    -0.2258    -1.5976 H       
  47 H47           -3.2073     0.4737    -0.1456 H       
  48 H48           -3.5613     1.5077    -1.5505 H       
  49 H49           -6.6927     1.0354     8.5015 H       
  50 H50           -7.9255     4.5243     6.3808 H       
  51 H51           -7.9397     1.7991    10.4827 H       
  52 H52           -9.1722     5.2882     8.3621 H       
  53 H53           -9.1832     3.9232    10.4115 H       
  54 H54           -9.6960     2.7121     3.2555 H       
  55 H55           -8.1107     2.7232     2.4462 H       
  56 H56           -9.0510     1.2148     2.5411 H       
@<TRIPOS>BOND
   1    1    2 2
   2    1    3 2
   3    1    6 am
   4    1   11 1
   5    4   15 2
   6    5   25 2
   7    6   12 1
   8    6   13 1
   9    7    9 1
  10    7   25 am
  11    7   37 1
  12    8   15 am
  13    8   16 1
  14    8   40 1
  15    9   10 1
  16    9   14 1
  17    9   30 1
  18   10   15 1
  19   10   31 1
  20   10   32 1
  21   11   17 ar
  22   11   18 ar
  23   12   21 1
  24   12   33 1
  25   12   34 1
  26   13   22 1
  27   13   35 1
  28   13   36 1
  29   14   23 ar
  30   14   24 ar
  31   16   19 ar
  32   16   20 ar
  33   17   19 ar
  34   17   38 1
  35   18   20 ar
  36   18   39 1
  37   19   41 1
  38   20   42 1
  39   21   43 1
  40   21   44 1
  41   21   45 1
  42   22   46 1
  43   22   47 1
  44   22   48 1
  45   23   26 ar
  46   23   49 1
  47   24   27 ar
  48   24   50 1
  49   25   29 1
  50   26   28 ar
  51   26   51 1
  52   27   28 ar
  53   27   52 1
  54   28   53 1
  55   29   54 1
  56   29   55 1
  57   29   56 1

#	End of record

#	Name: 5154466
#	Creating user name:	landrgr1
#	Creation time:	28. 01. 2015 13:52

#	Modifying user name:	landrgr1
#	Modification time:	28. 01. 2015 13:52

#	Program:	corina 3.48 0006  22.01.2010

@<TRIPOS>MOLECULE
5154466
  35   36    0    0    0
SMALL
NO_CHARGES


@<TRIPOS>ATOM
   1 O1            -2.1611    -0.1632     0.2177 O.2     
   2 N2            -0.0169     1.3968     0.0097 N.2     
   3 N3             0.0441    -0.0027     0.0335 N.am    
   4 C4             3.0330     3.5772    -1.5780 C.3     
   5 C5             1.6450     4.1799    -1.3548 C.3     
   6 C6             2.9123     2.0712    -1.8163 C.3     
   7 C7             1.0321     3.5886    -0.0810 C.3     
   8 C8             2.3471     1.4006    -0.5599 C.3     
   9 C9             1.0456     2.0804    -0.1960 C.2     
  10 C10            3.6731     4.2247    -2.7789 C.ar    
  11 C11            4.8670     4.9078    -2.6416 C.ar    
  12 C12            3.0691     4.1308    -4.0187 C.ar    
  13 C13            5.4541     5.5018    -3.7431 C.ar    
  14 C14            3.6562     4.7247    -5.1203 C.ar    
  15 C15            4.8474     5.4123    -4.9820 C.ar    
  16 C16           -1.0887    -0.7249     0.1413 C.2     
  17 C17           -1.0230    -2.2302     0.1670 C.3     
  18 H18            3.6514     3.7564    -0.6984 H       
  19 H19            1.7309     5.2613    -1.2488 H       
  20 H20            1.0065     3.9476    -2.2071 H       
  21 H21            2.2438     1.8887    -2.6577 H       
  22 H22            3.8964     1.6581    -2.0375 H       
  23 H23            1.6197     3.8951     0.7844 H       
  24 H24            0.0054     3.9383     0.0278 H       
  25 H25            2.1653     0.3444    -0.7588 H       
  26 H26            3.0564     1.5045     0.2612 H       
  27 H27            5.3409     4.9778    -1.6736 H       
  28 H28            2.1388     3.5930    -4.1269 H       
  29 H29            6.3865     6.0361    -3.6358 H       
  30 H30            3.1846     4.6510    -6.0891 H       
  31 H31            5.3059     5.8766    -5.8426 H       
  32 H32            0.9017    -0.4518    -0.0276 H       
  33 H33           -2.0304    -2.6364     0.2580 H       
  34 H34           -0.5683    -2.5898    -0.7561 H       
  35 H35           -0.4228    -2.5533     1.0175 H       
@<TRIPOS>BOND
   1    1   16 2
   2    2    3 1
   3    2    9 2
   4    3   16 am
   5    3   32 1
   6    4    5 1
   7    4    6 1
   8    4   10 1
   9    4   18 1
  10    5    7 1
  11    5   19 1
  12    5   20 1
  13    6    8 1
  14    6   21 1
  15    6   22 1
  16    7    9 1
  17    7   23 1
  18    7   24 1
  19    8    9 1
  20    8   25 1
  21    8   26 1
  22   10   11 ar
  23   10   12 ar
  24   11   13 ar
  25   11   27 1
  26   12   14 ar
  27   12   28 1
  28   13   15 ar
  29   13   29 1
  30   14   15 ar
  31   14   30 1
  32   15   31 1
  33   16   17 1
  34   17   33 1
  35   17   34 1
  36   17   35 1

#	End of record

#	Name: 5153559
#	Creating user name:	landrgr1
#	Creation time:	28. 01. 2015 13:52

#	Modifying user name:	landrgr1
#	Modification time:	28. 01. 2015 13:52

#	Program:	corina 3.48 0006  22.01.2010

@<TRIPOS>MOLECULE
5153559
  50   50    0    0    0
SMALL
NO_CHARGES


@<TRIPOS>ATOM
   1 O1            -0.0173     1.4248     0.0099 O.3     
   2 O2             8.0818     2.2860    -0.8541 O.3     
   3 O3             5.2670     7.6300    -0.7996 O.3     
   4 O4             7.4725     3.5733     0.8480 O.2     
   5 O5             5.9981     6.3725     0.8765 O.2     
   6 N6             5.9486     3.2227    -0.7285 N.am    
   7 N7             4.8337     5.3393    -0.7069 N.am    
   8 C8             4.9658     4.0499    -0.0241 C.3     
   9 C9             3.6326     3.3475    -0.0146 C.ar    
  10 C10           -1.4333    -0.5336     0.0129 C.3     
  11 C11            0.0021    -0.0041     0.0020 C.3     
  12 C12            2.4636     4.0858     0.0005 C.ar    
  13 C13            3.5802     1.9659    -0.0268 C.ar    
  14 C14            1.1850     2.0582     0.0018 C.ar    
  15 C15           -1.4126    -2.0635     0.0045 C.3     
  16 C16            1.2402     3.4444     0.0087 C.ar    
  17 C17            2.3593     1.3197    -0.0187 C.ar    
  18 C18           -2.8479    -2.5931     0.0153 C.3     
  19 C19            7.1787     3.0462    -0.2067 C.2     
  20 C20            5.3884     6.4450    -0.1721 C.2     
  21 C21            9.3864     2.1400    -0.2335 C.3     
  22 C22            5.8897     8.7784    -0.1659 C.3     
  23 C23           10.2702     1.2485    -1.1081 C.3     
  24 C24            5.6472    10.0253    -1.0187 C.3     
  25 H25            5.2973     4.2140     1.0012 H       
  26 H26           -1.9435    -0.1821     0.9097 H       
  27 H27           -1.9605    -0.1726    -0.8702 H       
  28 H28            0.5123    -0.3556    -0.8948 H       
  29 H29            0.5293    -0.3651     0.8851 H       
  30 H30            2.5071     5.1650     0.0062 H       
  31 H31            4.4947     1.3915    -0.0432 H       
  32 H32           -0.9024    -2.4150    -0.8923 H       
  33 H33           -0.8854    -2.4246     0.8875 H       
  34 H34            0.3274     4.0215     0.0209 H       
  35 H35            2.3189     0.2405    -0.0279 H       
  36 H36            5.7140     2.8020    -1.5704 H       
  37 H37            4.3470     5.3971    -1.5440 H       
  38 H38           -3.3751    -2.2320    -0.8677 H       
  39 H39           -2.8332    -3.6829     0.0093 H       
  40 H40           -3.3581    -2.2415     0.9121 H       
  41 H41            9.8505     3.1206    -0.1284 H       
  42 H42            9.2718     1.6849     0.7503 H       
  43 H43            5.4579     8.9257     0.8240 H       
  44 H44            6.9618     8.6049    -0.0725 H       
  45 H45            9.8061     0.2679    -1.2132 H       
  46 H46           10.3848     1.7036    -2.0919 H       
  47 H47           11.2496     1.1389    -0.6422 H       
  48 H48            6.0790     9.8781    -2.0087 H       
  49 H49            4.5752    10.1988    -1.1121 H       
  50 H50            6.1147    10.8874    -0.5430 H       
@<TRIPOS>BOND
   1    1   11 1
   2    1   14 1
   3    2   19 1
   4    2   21 1
   5    3   20 1
   6    3   22 1
   7    4   19 2
   8    5   20 2
   9    6    8 1
  10    6   19 am
  11    6   36 1
  12    7    8 1
  13    7   20 am
  14    7   37 1
  15    8    9 1
  16    8   25 1
  17    9   12 ar
  18    9   13 ar
  19   10   11 1
  20   10   15 1
  21   10   26 1
  22   10   27 1
  23   11   28 1
  24   11   29 1
  25   12   16 ar
  26   12   30 1
  27   13   17 ar
  28   13   31 1
  29   14   16 ar
  30   14   17 ar
  31   15   18 1
  32   15   32 1
  33   15   33 1
  34   16   34 1
  35   17   35 1
  36   18   38 1
  37   18   39 1
  38   18   40 1
  39   21   23 1
  40   21   41 1
  41   21   42 1
  42   22   24 1
  43   22   43 1
  44   22   44 1
  45   23   45 1
  46   23   46 1
  47   23   47 1
  48   24   48 1
  49   24   49 1
  50   24   50 1

#	End of record

#	Name: 5153374
#	Creating user name:	landrgr1
#	Creation time:	28. 01. 2015 13:52

#	Modifying user name:	landrgr1
#	Modification time:	28. 01. 2015 13:52

#	Program:	corina 3.48 0006  22.01.2010

@<TRIPOS>MOLECULE
5153374
  51   54    0    0    0
SMALL
NO_CHARGES


@<TRIPOS>ATOM
   1 Cl1           -1.1709     4.1643     0.9769 Cl      
   2 S2            -0.0172     1.4168     0.0098 S.o2    
   3 S3            -7.6915     4.1642    -2.5358 S.3     
   4 O4             0.3722     0.0572    -0.1284 O.2     
   5 O5             0.9127     2.4900     0.0632 O.2     
   6 O6            -5.1568     4.0434    -2.0949 O.2     
   7 O7            -1.7711    -1.8451     3.8176 O.2     
   8 O8            -2.8804    -0.7078     5.2057 O.2     
   9 N9            -1.0352     1.7426    -1.2550 N.am    
  10 N10           -5.7949     2.2247    -3.1934 N.am    
  11 N11           -8.0836     2.0065    -3.7674 N.2     
  12 N12           -2.2200    -0.7738     4.1844 N.pl3   
  13 C13           -3.4205     2.5155    -2.5640 C.3     
  14 C14           -2.5625     3.5542    -1.8380 C.3     
  15 C15           -3.3374     1.1717    -1.8281 C.3     
  16 C16           -1.1022     3.0914    -1.8338 C.3     
  17 C17           -1.8842     0.6869    -1.8238 C.3     
  18 C18           -4.8525     2.9837    -2.5999 C.2     
  19 C19           -0.9731     1.5128     1.4869 C.ar    
  20 C20           -1.2135     0.3723     2.2301 C.ar    
  21 C21           -1.4784     2.7304     1.9059 C.ar    
  22 C22           -7.1113     2.6551    -3.2264 C.2     
  23 C23           -1.9630     0.4476     3.3890 C.ar    
  24 C24           -2.2286     2.8051     3.0662 C.ar    
  25 C25           -2.4731     1.6634     3.8054 C.ar    
  26 C26           -9.3129     2.5562    -3.7193 C.ar    
  27 C27           -9.3308     3.7910    -3.0629 C.ar    
  28 C28          -10.5268     2.0513    -4.2312 C.ar    
  29 C29          -10.5225     4.4977    -2.9234 C.ar    
  30 C30          -11.6918     2.7610    -4.0838 C.ar    
  31 C31          -11.6954     3.9851    -3.4318 C.ar    
  32 C32          -10.5440     0.7238    -4.9442 C.3     
  33 H33           -3.0541     2.3898    -3.5828 H       
  34 H34           -2.6421     4.5134    -2.3496 H       
  35 H35           -2.9104     3.6594    -0.8104 H       
  36 H36           -3.6784     1.2978    -0.8006 H       
  37 H37           -3.9677     0.4403    -2.3340 H       
  38 H38           -0.5035     3.7767    -1.2337 H       
  39 H39           -0.7227     3.0699    -2.8553 H       
  40 H40           -1.5671     0.4734    -2.8445 H       
  41 H41           -1.8016    -0.2149    -1.2171 H       
  42 H42           -5.5515     1.3771    -3.5973 H       
  43 H43           -0.8160    -0.5777     1.9050 H       
  44 H44           -2.6231     3.7556     3.3941 H       
  45 H45           -3.0589     1.7215     4.7108 H       
  46 H46          -10.5270     5.4504    -2.4147 H       
  47 H47          -12.6144     2.3632    -4.4801 H       
  48 H48          -12.6180     4.5357    -3.3215 H       
  49 H49          -10.7262    -0.0734    -4.2235 H       
  50 H50          -11.3356     0.7240    -5.6935 H       
  51 H51           -9.5827     0.5604    -5.4313 H       
@<TRIPOS>BOND
   1    1   21 1
   2    2    4 2
   3    2    5 2
   4    2    9 am
   5    2   19 1
   6    3   22 1
   7    3   27 1
   8    6   18 2
   9    7   12 2
  10    8   12 2
  11    9   16 1
  12    9   17 1
  13   10   18 am
  14   10   22 1
  15   10   42 1
  16   11   22 2
  17   11   26 1
  18   12   23 1
  19   13   14 1
  20   13   15 1
  21   13   18 1
  22   13   33 1
  23   14   16 1
  24   14   34 1
  25   14   35 1
  26   15   17 1
  27   15   36 1
  28   15   37 1
  29   16   38 1
  30   16   39 1
  31   17   40 1
  32   17   41 1
  33   19   20 ar
  34   19   21 ar
  35   20   23 ar
  36   20   43 1
  37   21   24 ar
  38   23   25 ar
  39   24   25 ar
  40   24   44 1
  41   25   45 1
  42   26   27 ar
  43   26   28 ar
  44   27   29 ar
  45   28   30 ar
  46   28   32 1
  47   29   31 ar
  48   29   46 1
  49   30   31 ar
  50   30   47 1
  51   31   48 1
  52   32   49 1
  53   32   50 1
  54   32   51 1

#	End of record

#	Name: 5153151
#	Creating user name:	landrgr1
#	Creation time:	28. 01. 2015 13:52

#	Modifying user name:	landrgr1
#	Modification time:	28. 01. 2015 13:52

#	Program:	corina 3.48 0006  22.01.2010

@<TRIPOS>MOLECULE
5153151
  20   20    0    0    0
SMALL
NO_CHARGES


@<TRIPOS>ATOM
   1 Cl1            5.0984     1.2996    -0.0255 Cl      
   2 Cl2            2.3340     5.9410     0.0122 Cl      
   3 S3            -1.1326    -2.4056    -0.0000 S.2     
   4 N4            -0.0169     1.3968     0.0097 N.pl3   
   5 N5             0.0021    -0.0041     0.0020 N.am    
   6 N6            -2.3320    -0.0358     0.0241 N.am    
   7 C7             1.1830     2.1115     0.0021 C.ar    
   8 C8             1.1657     3.5004     0.0097 C.ar    
   9 C9             2.3959     1.4348    -0.0073 C.ar    
  10 C10            3.5820     2.1446    -0.0144 C.ar    
  11 C11            2.3547     4.2052     0.0026 C.ar    
  12 C12            3.5617     3.5283    -0.0120 C.ar    
  13 C13           -1.1558    -0.6938     0.0094 C.2     
  14 H14            0.2240     4.0291     0.0208 H       
  15 H15            2.4123     0.3549    -0.0088 H       
  16 H16           -0.8635     1.8703     0.0163 H       
  17 H17            4.4895     4.0810    -0.0172 H       
  18 H18            0.8486    -0.4776    -0.0086 H       
  19 H19           -3.1653    -0.5322     0.0294 H       
  20 H20           -2.3452     0.9341     0.0295 H       
@<TRIPOS>BOND
   1    1   10 1
   2    2   11 1
   3    3   13 2
   4    4    5 1
   5    4    7 1
   6    4   16 1
   7    5   13 am
   8    5   18 1
   9    6   13 am
  10    6   19 1
  11    6   20 1
  12    7    8 ar
  13    7    9 ar
  14    8   11 ar
  15    8   14 1
  16    9   10 ar
  17    9   15 1
  18   10   12 ar
  19   11   12 ar
  20   12   17 1

#	End of record

#	Name: 5151543
#	Creating user name:	landrgr1
#	Creation time:	28. 01. 2015 13:52

#	Modifying user name:	landrgr1
#	Modification time:	28. 01. 2015 13:52

#	Program:	corina 3.48 0006  22.01.2010

@<TRIPOS>MOLECULE
5151543
  41   44    0    0    0
SMALL
NO_CHARGES


@<TRIPOS>ATOM
   1 O1             1.9604     2.7603     0.9782 O.2     
   2 O2            -0.7957     4.5697     5.0645 O.2     
   3 N3            -0.0179     1.4653     0.0101 N.3     
   4 N4             0.3055     0.1331    -2.4851 N.3     
   5 C5            -0.4671     2.0942    -1.2398 C.3     
   6 C6            -0.1128     0.0014    -0.0765 C.3     
   7 C7             0.4005     1.5970    -2.3985 C.3     
   8 C8             0.7548    -0.4958    -1.2351 C.3     
   9 C9            -0.7354     1.9464     1.0941 C.ar    
  10 C10           -0.0901     2.6792     2.0965 C.ar    
  11 C11           -0.8317     3.1634     3.1923 C.ar    
  12 C12            1.0659    -0.3768    -3.6339 C.3     
  13 C13           -2.1071     1.7081     1.1899 C.ar    
  14 C14            1.3568     2.9478     2.0167 C.2     
  15 C15            2.0666     3.4478     3.2149 C.ar    
  16 C16           -0.1499     3.9377     4.2521 C.2     
  17 C17            1.3281     3.9335     4.3102 C.ar    
  18 C18           -2.1954     2.9094     3.2687 C.ar    
  19 C19           -2.8240     2.1857     2.2661 C.ar    
  20 C20            3.4558     3.4416     3.2685 C.ar    
  21 C21            1.9938     4.4039     5.4370 C.ar    
  22 C22            4.1031     3.9135     4.3980 C.ar    
  23 C23            3.3777     4.3905     5.4740 C.ar    
  24 H24           -1.5082     1.8304    -1.4259 H       
  25 H25           -0.3755     3.1771    -1.1555 H       
  26 H26            0.2371    -0.4415     0.8560 H       
  27 H27           -1.1499    -0.2861    -0.2493 H       
  28 H28            1.4376     1.8845    -2.2257 H       
  29 H29            0.0505     2.0399    -3.3309 H       
  30 H30            0.6631    -1.5787    -1.3194 H       
  31 H31            1.7959    -0.2320    -1.0491 H       
  32 H32            2.1149    -0.1003    -3.5268 H       
  33 H33            0.9787    -1.4626    -3.6743 H       
  34 H34            0.6685     0.0541    -4.5528 H       
  35 H35           -2.6099     1.1466     0.4164 H       
  36 H36           -2.7670     3.2786     4.1074 H       
  37 H37           -3.8852     1.9951     2.3289 H       
  38 H38            4.0284     3.0696     2.4318 H       
  39 H39            1.4330     4.7787     6.2804 H       
  40 H40            5.1823     3.9080     4.4390 H       
  41 H41            3.8943     4.7562     6.3491 H       
@<TRIPOS>BOND
   1    1   14 2
   2    2   16 2
   3    3    5 1
   4    3    6 1
   5    3    9 1
   6    4    7 1
   7    4    8 1
   8    4   12 1
   9    5    7 1
  10    5   24 1
  11    5   25 1
  12    6    8 1
  13    6   26 1
  14    6   27 1
  15    7   28 1
  16    7   29 1
  17    8   30 1
  18    8   31 1
  19    9   10 ar
  20    9   13 ar
  21   10   11 ar
  22   10   14 1
  23   11   16 1
  24   11   18 ar
  25   12   32 1
  26   12   33 1
  27   12   34 1
  28   13   19 ar
  29   13   35 1
  30   14   15 1
  31   15   17 ar
  32   15   20 ar
  33   16   17 1
  34   17   21 ar
  35   18   19 ar
  36   18   36 1
  37   19   37 1
  38   20   22 ar
  39   20   38 1
  40   21   23 ar
  41   21   39 1
  42   22   23 ar
  43   22   40 1
  44   23   41 1

#	End of record

#	Name: 5143885
#	Creating user name:	landrgr1
#	Creation time:	28. 01. 2015 13:52

#	Modifying user name:	landrgr1
#	Modification time:	28. 01. 2015 13:52

#	Program:	corina 3.48 0006  22.01.2010

@<TRIPOS>MOLECULE
5143885
  47   47    0    0    0
SMALL
NO_CHARGES


@<TRIPOS>ATOM
   1 F1             0.4300     0.0825    -2.3273 F       
   2 F2             1.1957    -1.7659    -1.2245 F       
   3 F3             2.2014     0.2588    -0.8955 F       
   4 O4            -1.1777    -0.8540    -0.1533 O.3     
   5 O5             0.6645     2.2810     0.1980 O.3     
   6 O6            -1.4583     1.7348    -0.0827 O.2     
   7 O7             0.4006    -2.6340     0.8584 O.2     
   8 O8             3.5183    -3.9240     8.4045 O.3     
   9 N9             0.6526    -0.4701     1.2912 N.am    
  10 N10            1.2488    -2.1090     2.8430 N.am    
  11 C11            0.0209    -0.0962     0.0234 C.3     
  12 C12            0.9826    -0.3864    -1.1307 C.3     
  13 C13           -0.3121     1.3734     0.0423 C.2     
  14 C14            0.7545    -1.7690     1.6361 C.2     
  15 C15           -2.1483    -0.6548     0.8764 C.3     
  16 C16            1.3595    -3.5209     3.2178 C.3     
  17 C17            1.9372    -3.6284     4.6056 C.ar    
  18 C18           -3.3829    -1.5106     0.5859 C.3     
  19 C19            0.2705     3.6785     0.2066 C.3     
  20 C20            1.0971    -3.6415     5.7037 C.ar    
  21 C21            3.3060    -3.7195     4.7782 C.ar    
  22 C22            1.6241    -3.7403     6.9768 C.ar    
  23 C23            3.8379    -3.8186     6.0493 C.ar    
  24 C24            2.9975    -3.8266     7.1530 C.ar    
  25 C25            1.5095     4.5565     0.3931 C.3     
  26 C26            4.9409    -4.0091     8.5103 C.3     
  27 H27            0.9976     0.2172     1.8825 H       
  28 H28           -1.7233    -0.9446     1.8374 H       
  29 H29           -2.4342     0.3966     0.9077 H       
  30 H30            0.3713    -3.9804     3.1990 H       
  31 H31            2.0124    -4.0342     2.5118 H       
  32 H32            1.5312    -1.4189     3.4634 H       
  33 H33           -4.1233    -1.3587     1.3712 H       
  34 H34           -3.8079    -1.2208    -0.3751 H       
  35 H35           -3.0970    -2.5620     0.5545 H       
  36 H36           -0.2112     3.9260    -0.7394 H       
  37 H37           -0.4262     3.8545     1.0261 H       
  38 H38            0.0280    -3.5739     5.5660 H       
  39 H39            3.9598    -3.7136     3.9187 H       
  40 H40            0.9675    -3.7502     7.8343 H       
  41 H41            4.9071    -3.8901     6.1836 H       
  42 H42            1.2138     5.6056     0.3995 H       
  43 H43            1.9912     4.3090     1.3390 H       
  44 H44            2.2063     4.3805    -0.4265 H       
  45 H45            5.2233    -4.0822     9.5605 H       
  46 H46            5.2926    -4.8923     7.9771 H       
  47 H47            5.3917    -3.1178     8.0740 H       
@<TRIPOS>BOND
   1    1   12 1
   2    2   12 1
   3    3   12 1
   4    4   11 1
   5    4   15 1
   6    5   13 1
   7    5   19 1
   8    6   13 2
   9    7   14 2
  10    8   24 1
  11    8   26 1
  12    9   11 1
  13    9   14 am
  14    9   27 1
  15   10   14 am
  16   10   16 1
  17   10   32 1
  18   11   12 1
  19   11   13 1
  20   15   18 1
  21   15   28 1
  22   15   29 1
  23   16   17 1
  24   16   30 1
  25   16   31 1
  26   17   20 ar
  27   17   21 ar
  28   18   33 1
  29   18   34 1
  30   18   35 1
  31   19   25 1
  32   19   36 1
  33   19   37 1
  34   20   22 ar
  35   20   38 1
  36   21   23 ar
  37   21   39 1
  38   22   24 ar
  39   22   40 1
  40   23   24 ar
  41   23   41 1
  42   25   42 1
  43   25   43 1
  44   25   44 1
  45   26   45 1
  46   26   46 1
  47   26   47 1

#	End of record

#	Name: 5140468
#	Creating user name:	landrgr1
#	Creation time:	28. 01. 2015 13:52

#	Modifying user name:	landrgr1
#	Modification time:	28. 01. 2015 13:52

#	Program:	corina 3.48 0006  22.01.2010

@<TRIPOS>MOLECULE
5140468
  48   49    0    0    0
SMALL
NO_CHARGES


@<TRIPOS>ATOM
   1 S1            -0.1702     1.9460     0.0058 S.3     
   2 S2             2.8568     1.4442     0.2612 S.3     
   3 O3            -2.2548     0.0217    -0.3086 O.2     
   4 O4             3.7369     7.3095    -1.3096 O.3     
   5 O5             2.5947     5.5021    -1.8685 O.2     
   6 O6            -7.4180    -2.3249     0.3706 O.2     
   7 N7            -1.3954    -1.7447     0.7226 N.am    
   8 N8             1.8939     3.7185     0.0833 N.2     
   9 N9            -6.4214    -4.0777     1.2961 N.am    
  10 C10            0.0649     0.1541     0.1058 C.3     
  11 C11           -1.2786    -0.5266     0.1578 C.2     
  12 C12           -2.6591    -2.3314     0.8672 C.ar    
  13 C13            0.8340    -0.3289    -1.1255 C.3     
  14 C14           -2.8001    -3.7095     0.7705 C.ar    
  15 C15           -3.7702    -1.5354     1.1129 C.ar    
  16 C16            3.1934     3.9382     0.1726 C.2     
  17 C17           -5.1575    -3.4911     1.1525 C.ar    
  18 C18            1.5055     2.4807     0.1103 C.2     
  19 C19            3.7882     5.3227     0.1552 C.3     
  20 C20           -4.0455    -4.2877     0.9130 C.ar    
  21 C21           -5.0156    -2.1135     1.2553 C.ar    
  22 C22            3.9363     2.8362     0.2799 C.2     
  23 C23            3.3294     6.0510    -1.0818 C.2     
  24 C24           -7.5161    -3.4412     0.8347 C.2     
  25 C25            3.2554     7.9492    -2.5209 C.3     
  26 C26            3.8214     9.3680    -2.6080 C.3     
  27 C27           -8.8620    -4.1165     0.8953 C.3     
  28 H28            0.6302    -0.0885     1.0056 H       
  29 H29           -0.6044    -2.2152     1.0290 H       
  30 H30            1.8057     0.1635    -1.1631 H       
  31 H31            0.9755    -1.4080    -1.0652 H       
  32 H32            0.2687    -0.0863    -2.0253 H       
  33 H33           -1.9353    -4.3290     0.5835 H       
  34 H34           -3.6599    -0.4640     1.1929 H       
  35 H35            3.4627     5.8692     1.0403 H       
  36 H36            4.8759     5.2509     0.1521 H       
  37 H37           -4.1551    -5.3595     0.8378 H       
  38 H38           -5.8798    -1.4944     1.4460 H       
  39 H39            5.0125     2.8028     0.3643 H       
  40 H40           -6.5087    -4.9420     1.7277 H       
  41 H41            3.5796     7.3747    -3.3887 H       
  42 H42            2.1665     7.9931    -2.5005 H       
  43 H43            3.4972     9.9424    -1.7403 H       
  44 H44            4.9104     9.3241    -2.6285 H       
  45 H45            3.4600     9.8482    -3.5174 H       
  46 H46           -9.6204    -3.4530     0.4798 H       
  47 H47           -8.8313    -5.0402     0.3175 H       
  48 H48           -9.1076    -4.3447     1.9324 H       
@<TRIPOS>BOND
   1    1   10 1
   2    1   18 1
   3    2   18 1
   4    2   22 1
   5    3   11 2
   6    4   23 1
   7    4   25 1
   8    5   23 2
   9    6   24 2
  10    7   11 am
  11    7   12 1
  12    7   29 1
  13    8   16 1
  14    8   18 2
  15    9   17 1
  16    9   24 am
  17    9   40 1
  18   10   11 1
  19   10   13 1
  20   10   28 1
  21   12   14 ar
  22   12   15 ar
  23   13   30 1
  24   13   31 1
  25   13   32 1
  26   14   20 ar
  27   14   33 1
  28   15   21 ar
  29   15   34 1
  30   16   19 1
  31   16   22 2
  32   17   20 ar
  33   17   21 ar
  34   19   23 1
  35   19   35 1
  36   19   36 1
  37   20   37 1
  38   21   38 1
  39   22   39 1
  40   24   27 1
  41   25   26 1
  42   25   41 1
  43   25   42 1
  44   26   43 1
  45   26   44 1
  46   26   45 1
  47   27   46 1
  48   27   47 1
  49   27   48 1

#	End of record

