b-DB01414.mol2-001.sdf
     RDKit          3D

 13 14  0  0  0  0  0  0  0  0999 V2000
    0.0920    2.2690    0.0324 S   0  0  0  0  0  0  0  0  0  0  0  0
    1.6814   -2.0479    0.7043 O   0  0  0  0  0  0  0  0  0  0  0  0
   -2.0466   -2.5803    0.7464 O   0  0  0  0  0  0  0  0  0  0  0  0
   -1.0657   -2.5371   -1.3191 O   0  0  0  0  0  0  0  0  0  0  0  0
    0.0803   -0.3183    0.6279 N   0  0  0  0  0  0  0  0  0  0  0  0
    0.4073    0.9584    1.2362 C   0  0  1  0  0  0  0  0  0  0  0  0
    1.8589    0.4378    1.3199 C   0  0  0  0  0  3  0  0  0  0  0  0
    1.2629   -0.9256    0.8671 C   0  0  0  0  0  0  0  0  0  0  0  0
   -1.1169   -0.5944    0.0498 C   0  0  0  0  0  0  0  0  0  0  0  0
   -1.9939    0.3886   -0.2646 C   0  0  0  0  0  0  0  0  0  0  0  0
   -1.6851    1.8748   -0.0978 C   0  0  0  0  0  0  0  0  0  0  0  0
   -3.3737    0.1569   -0.8322 C   0  0  0  0  0  3  0  0  0  0  0  0
   -1.3904   -2.0015   -0.2785 C   0  0  0  0  0  0  0  0  0  0  0  0
  6  1  1  6
  1 11  1  0
  2  8  2  0
  3 13  1  0
  4 13  2  0
  5  6  1  0
  5  8  1  0
  5  9  1  0
  6  7  1  0
  7  8  1  1
  9 10  2  0
  9 13  1  0
 10 11  1  0
 10 12  1  0
M  RAD  2   7   2  12   2
M  END
>  <ATOMTYPES>  (1) 
S.3
O.2
O.2
O.2
N.am
C.3
C.3
C.2
C.2
C.2
C.3
C.3
C.2

>  <ATOM_NUMBER ELIGIBLE_ATOMTYPE_TO_CONNECT>  (1) 
7 N.am
12 O.3


>  <SIMILAR_FRAGMENTS>  (1) 


$$$$
