b-DB01415.mol2-000.sdf
     RDKit          3D

 12 13  0  0  0  0  0  0  0  0999 V2000
   -1.5645    1.2601   -2.2732 S   0  0  0  0  0  0  0  0  0  0  0  0
   -2.0387    0.3123    2.2809 O   0  0  0  0  0  0  0  0  0  0  0  0
   -4.6933    0.2563    1.7830 O   0  0  0  0  0  0  0  0  0  0  0  0
   -5.5012   -1.1659    0.1846 O   0  0  0  0  0  0  0  0  0  0  0  0
   -2.7078    0.9677    0.1211 N   0  0  0  0  0  0  0  0  0  0  0  0
   -1.8818    1.9124   -0.6122 C   0  0  1  0  0  0  0  0  0  0  0  0
   -0.8098    1.6479    0.4608 C   0  0  0  0  0  3  0  0  0  0  0  0
   -1.9222    0.8645    1.2123 C   0  0  0  0  0  0  0  0  0  0  0  0
   -3.8758    0.4823   -0.3556 C   0  0  0  0  0  0  0  0  0  0  0  0
   -3.3365    1.1934   -2.7288 C   0  0  0  0  0  0  0  0  0  0  0  0
   -4.2123    0.5966   -1.6524 C   0  0  0  0  0  0  0  0  0  0  0  0
   -4.7817   -0.2466    0.5334 C   0  0  0  0  0  0  0  0  0  0  0  0
  6  1  1  6
  1 10  1  0
  2  8  2  0
  3 12  1  0
  4 12  2  0
  5  6  1  0
  5  8  1  0
  5  9  1  0
  6  7  1  0
  7  8  1  1
  9 11  2  0
  9 12  1  0
 10 11  1  0
M  RAD  1   7   2
M  END
>  <ATOMTYPES>  (1) 
S.3
O.2
O.2
O.2
N.am
C.3
C.3
C.2
C.2
C.3
C.2
C.2

>  <ATOM_NUMBER ELIGIBLE_ATOMTYPE_TO_CONNECT>  (1) 
7 N.am


>  <SIMILAR_FRAGMENTS>  (1) 


$$$$
