b-DB01415.mol2-001.sdf
     RDKit          3D

 14 14  0  0  0  0  0  0  0  0999 V2000
    5.2661    2.0499   -0.1222 S   0  0  0  0  0  0  0  0  0  0  0  0
    1.1045    0.4494    2.2603 O   0  0  0  0  0  0  0  0  0  0  0  0
   -0.9795   -3.5322   -0.3621 O   0  0  0  0  0  0  0  0  0  0  0  0
    0.3506   -2.2539   -1.6849 O   0  0  0  0  0  0  0  0  0  0  0  0
    4.6555   -0.4587   -0.2496 N   0  0  0  0  0  0  0  0  0  0  0  0
    6.8702    0.0704   -0.8863 N   0  0  0  0  0  0  0  0  0  0  0  0
    1.2055    0.2787    1.0473 C   0  0  0  0  0  3  0  0  0  0  0  0
    2.3571   -0.4984    0.4771 C   0  0  0  0  0  0  0  0  0  0  0  0
    3.5600    0.2352    0.1876 C   0  0  0  0  0  0  0  0  0  0  0  0
    2.2068   -1.8325    0.3539 C   0  0  0  0  0  0  0  0  0  0  0  0
    0.9652   -2.6252    0.6482 C   0  0  0  0  0  0  0  0  0  0  0  0
    3.6760    1.5874    0.3239 C   0  0  0  0  0  0  0  0  0  0  0  0
    5.6270    0.4042   -0.4478 C   0  0  0  0  0  0  0  0  0  0  0  0
    0.1158   -2.7613   -0.5969 C   0  0  0  0  0  0  0  0  0  0  0  0
  1 12  1  0
  1 13  1  0
  2  7  2  0
  3 14  1  0
  4 14  2  0
  5  9  1  0
  5 13  2  0
  6 13  1  0
  7  8  1  0
  8  9  1  0
  8 10  2  0
  9 12  2  0
 10 11  1  0
 11 14  1  0
M  RAD  1   7   2
M  END
>  <ATOMTYPES>  (1) 
S.2
O.2
O.2
O.2
N.ar
N.2
C.2
C.2
C.ar
C.2
C.3
C.ar
C.ar
C.2

>  <ATOM_NUMBER ELIGIBLE_ATOMTYPE_TO_CONNECT>  (1) 
7 N.am


>  <SIMILAR_FRAGMENTS>  (1) 


$$$$
