b-DB01416.mol2-000.sdf
     RDKit          3D

 12 12  0  0  0  0  0  0  0  0999 V2000
    3.2214   -3.3478    0.4310 S   0  0  0  0  0  0  0  0  0  0  0  0
    2.2471    1.5308    1.8634 O   0  0  0  0  0  0  0  0  0  0  0  0
    3.8078    2.6599   -0.5742 O   0  0  0  0  0  0  0  0  0  0  0  0
    4.1395    1.2998   -0.6469 N   0  0  0  0  0  0  0  0  0  0  0  0
    4.5667   -1.4199   -0.6441 N   0  0  0  0  0  0  0  0  0  0  0  0
    5.4482   -3.5842   -1.0033 N   0  0  0  0  0  0  0  0  0  0  0  0
    2.1135    1.1942    0.6979 C   0  0  0  0  0  3  0  0  0  0  0  0
    3.2857    0.5604   -0.0054 C   0  0  0  0  0  0  0  0  0  0  0  0
    3.4888   -0.8919    0.0082 C   0  0  0  0  0  0  0  0  0  0  0  0
    2.6436   -1.7477    0.6479 C   0  0  0  0  0  0  0  0  0  0  0  0
    4.5296   -2.7247   -0.4883 C   0  0  0  0  0  0  0  0  0  0  0  0
    4.7860    3.3914   -1.2967 C   0  0  0  0  0  0  0  0  0  0  0  0
  1 10  1  0
  1 11  1  0
  2  7  2  0
  3  4  1  0
  3 12  1  0
  4  8  2  0
  5  9  1  0
  5 11  2  0
  6 11  1  0
  7  8  1  0
  8  9  1  0
  9 10  2  0
M  RAD  1   7   2
M  END
>  <ATOMTYPES>  (1) 
S.2
O.2
O.3
N.2
N.ar
N.2
C.2
C.2
C.ar
C.ar
C.ar
C.3

>  <ATOM_NUMBER ELIGIBLE_ATOMTYPE_TO_CONNECT>  (1) 
7 N.am


>  <SIMILAR_FRAGMENTS>  (1) 


$$$$
