b-DB01416.mol2-001.sdf
     RDKit          3D

 13 14  0  0  0  0  0  0  0  0999 V2000
   -1.3230    0.8122   -2.0550 S   0  0  0  0  0  0  0  0  0  0  0  0
   -0.7640    0.6863    2.5585 O   0  0  0  0  0  0  0  0  0  0  0  0
   -4.4436   -0.0340    2.2047 O   0  0  0  0  0  0  0  0  0  0  0  0
   -3.0468   -1.8312    1.9831 O   0  0  0  0  0  0  0  0  0  0  0  0
   -1.9533    0.7575    0.5235 N   0  0  0  0  0  0  0  0  0  0  0  0
   -1.5310    1.7012   -0.4953 C   0  0  1  0  0  0  0  0  0  0  0  0
   -0.2577    1.9024    0.3553 C   0  0  0  0  0  3  0  0  0  0  0  0
   -0.9878    1.0407    1.4247 C   0  0  0  0  0  0  0  0  0  0  0  0
   -3.0261   -0.0646    0.3927 C   0  0  0  0  0  0  0  0  0  0  0  0
   -3.6115   -0.2776   -0.8099 C   0  0  0  0  0  0  0  0  0  0  0  0
   -3.0709    0.2915   -2.1198 C   0  0  0  0  0  0  0  0  0  0  0  0
   -4.8530   -1.1099   -1.0235 C   0  0  0  0  0  3  0  0  0  0  0  0
   -3.4828   -0.7630    1.6035 C   0  0  0  0  0  0  0  0  0  0  0  0
  6  1  1  6
  1 11  1  0
  2  8  2  0
  3 13  1  0
  4 13  2  0
  5  6  1  0
  5  8  1  0
  5  9  1  0
  6  7  1  0
  7  8  1  1
  9 10  2  0
  9 13  1  0
 10 11  1  0
 10 12  1  0
M  RAD  2   7   2  12   2
M  END
>  <ATOMTYPES>  (1) 
S.3
O.2
O.2
O.2
N.am
C.3
C.3
C.2
C.2
C.2
C.3
C.3
C.2

>  <ATOM_NUMBER ELIGIBLE_ATOMTYPE_TO_CONNECT>  (1) 
7 N.am
12 O.3


>  <SIMILAR_FRAGMENTS>  (1) 


$$$$
