l-DB01416.mol2-000.sdf
     RDKit          3D

  2  1  0  0  0  0  0  0  0  0999 V2000
   -5.8620   -0.3060   -1.5973 O   0  0  0  0  0  1  0  0  0  0  0  0
   -7.0618   -1.0402   -1.8228 C   0  0  0  0  0  0  0  0  0  0  0  0
  1  2  1  0
M  RAD  1   1   2
M  END
>  <MAX-NUMBER-Of-CONTACTS ATOMTYPES>  (1) 
1 O.3
0 C.3

>  <SIMILAR_FRAGMENTS>  (1) 


$$$$
